@<TRIPOS>MOLECULE
caffeine
 14 15 0 0 0
SMALL
GASTEIGER

@<TRIPOS>ATOM
      1 C           0.0000    0.0000    0.0000 C.3     1  UNL1        0.1383
      2 N           0.0000    0.0000    0.0000 N.ar    1  UNL1       -0.2454
      3 C           0.0000    0.0000    0.0000 C.ar    1  UNL1        0.2832
      4 O           0.0000    0.0000    0.0000 O.2     1  UNL1       -0.2652
      5 C           0.0000    0.0000    0.0000 C.ar    1  UNL1        0.1528
      6 C           0.0000    0.0000    0.0000 C.ar    1  UNL1        0.1696
      7 N           0.0000    0.0000    0.0000 N.ar    1  UNL1       -0.2063
      8 C           0.0000    0.0000    0.0000 C.ar    1  UNL1        0.1802
      9 N           0.0000    0.0000    0.0000 N.ar    1  UNL1       -0.3021
     10 C           0.0000    0.0000    0.0000 C.3     1  UNL1        0.1322
     11 N           0.0000    0.0000    0.0000 N.ar    1  UNL1       -0.2628
     12 C           0.0000    0.0000    0.0000 C.3     1  UNL1        0.1366
     13 C           0.0000    0.0000    0.0000 C.ar    1  UNL1        0.3350
     14 O           0.0000    0.0000    0.0000 O.2     1  UNL1       -0.2461
@<TRIPOS>BOND
     1     1     2    1
     2     2    13   ar
     3     2     3   ar
     4     3     4    2
     5     3     5   ar
     6     5     9   ar
     7     5     6   ar
     8     6     7   ar
     9     6    11   ar
    10     7     8   ar
    11     8     9   ar
    12     9    10    1
    13    11    12    1
    14    11    13   ar
    15    13    14    2
@<TRIPOS>MOLECULE
cocaine
 22 24 0 0 0
SMALL
GASTEIGER

@<TRIPOS>ATOM
      1 C           0.0000    0.0000    0.0000 C.3     1  UNL1        0.2556
      2 O           0.0000    0.0000    0.0000 O.3     1  UNL1       -0.4443
      3 C           0.0000    0.0000    0.0000 C.2     1  UNL1        0.3215
      4 O           0.0000    0.0000    0.0000 O.2     1  UNL1       -0.2499
      5 C           0.0000    0.0000    0.0000 C.3     1  UNL1        0.1535
      6 C           0.0000    0.0000    0.0000 C.3     1  UNL1        0.1823
      7 O           0.0000    0.0000    0.0000 O.3     1  UNL1       -0.4485
      8 C           0.0000    0.0000    0.0000 C.2     1  UNL1        0.3411
      9 O           0.0000    0.0000    0.0000 O.2     1  UNL1       -0.2449
     10 C           0.0000    0.0000    0.0000 C.ar    1  UNL1        0.0756
     11 C           0.0000    0.0000    0.0000 C.ar    1  UNL1        0.0064
     12 C           0.0000    0.0000    0.0000 C.ar    1  UNL1        0.0002
     13 C           0.0000    0.0000    0.0000 C.ar    1  UNL1        0.0000
     14 C           0.0000    0.0000    0.0000 C.ar    1  UNL1        0.0002
     15 C           0.0000    0.0000    0.0000 C.ar    1  UNL1        0.0064
     16 C           0.0000    0.0000    0.0000 C.3     1  UNL1        0.0602
     17 C           0.0000    0.0000    0.0000 C.3     1  UNL1        0.0612
     18 C           0.0000    0.0000    0.0000 C.3     1  UNL1        0.0175
     19 C           0.0000    0.0000    0.0000 C.3     1  UNL1        0.0180
     20 C           0.0000    0.0000    0.0000 C.3     1  UNL1        0.0716
     21 N           0.0000    0.0000    0.0000 N.3     1  UNL1       -0.2733
     22 C           0.0000    0.0000    0.0000 C.3     1  UNL1        0.0896
@<TRIPOS>BOND
     1     1     2    1
     2     2     3    1
     3     3     4    2
     4     3     5    1
     5     5     6    1
     6     5    20    1
     7     6     7    1
     8     6    16    1
     9     7     8    1
    10     8     9    2
    11     8    10    1
    12    10    15   ar
    13    10    11   ar
    14    11    12   ar
    15    12    13   ar
    16    13    14   ar
    17    14    15   ar
    18    16    17    1
    19    17    18    1
    20    17    21    1
    21    18    19    1
    22    19    20    1
    23    20    21    1
    24    21    22    1
