CHEMBL153534_1
 OpenBabel06162213483D

 29 30  0  0  0  0  0  0  0  0999 V2000
    0.2891    0.0196    1.0414 C   0  0  0  0  0  0  0  0  0  0  0  0
    1.4575    0.3171    2.9431 C   0  0  0  0  0  0  0  0  0  0  0  0
    3.8231    1.4410    1.3000 C   0  0  0  0  0  0  0  0  0  0  0  0
    1.5204    0.4727    1.5759 C   0  0  0  0  0  0  0  0  0  0  0  0
    2.6187    0.9960    0.7965 C   0  0  0  0  0  0  0  0  0  0  0  0
   -0.4888   -0.3990    2.0983 C   0  0  0  0  0  0  0  0  0  0  0  0
    3.5751    1.5669   -1.0927 C   0  0  0  0  0  0  0  0  0  0  0  0
    2.9375    1.5400   -3.5426 C   0  0  0  0  0  0  0  0  0  0  0  0
   -1.8561   -0.9586    2.1050 C   0  0  0  0  0  0  0  0  0  0  0  0
   -0.2164   -0.5238    4.5891 C   0  0  0  0  0  0  0  0  0  0  0  0
    2.4746    1.0678   -0.5753 N   0  0  0  0  0  0  0  0  0  0  0  0
    1.7346    1.0442   -3.4994 N   0  0  0  0  0  0  0  0  0  0  0  0
    0.2315   -0.2133    3.2493 N   0  0  0  0  0  0  0  0  0  0  0  0
    3.5121    1.9003   -4.7393 N   0  0  0  0  0  0  0  0  0  0  0  0
    3.7712    1.7738   -2.4221 N   0  0  0  0  0  0  0  0  0  0  0  0
    4.8241    1.9715    0.0124 S   0  0  0  0  0  0  0  0  0  0  0  0
   -0.0040   -0.0017    0.0001 H   0  0  0  0  0  0  0  0  0  0  0  0
    2.1772    0.5377    3.7206 H   0  0  0  0  0  0  0  0  0  0  0  0
    4.1586    1.4808    2.3271 H   0  0  0  0  0  0  0  0  0  0  0  0
   -1.8350   -2.0567    2.0166 H   0  0  0  0  0  0  0  0  0  0  0  0
   -2.4006   -0.7063    3.0304 H   0  0  0  0  0  0  0  0  0  0  0  0
   -2.4665   -0.5660    1.2744 H   0  0  0  0  0  0  0  0  0  0  0  0
   -0.7128    0.3626    4.9926 H   0  0  0  0  0  0  0  0  0  0  0  0
   -0.9103   -1.3682    4.5545 H   0  0  0  0  0  0  0  0  0  0  0  0
    0.6460   -0.7939    5.2049 H   0  0  0  0  0  0  0  0  0  0  0  0
    1.4952    0.8438   -2.5222 H   0  0  0  0  0  0  0  0  0  0  0  0
    3.0178    1.7942   -5.6184 H   0  0  0  0  0  0  0  0  0  0  0  0
    4.4477    2.2899   -4.7789 H   0  0  0  0  0  0  0  0  0  0  0  0
    4.6867    2.1829   -2.6916 H   0  0  0  0  0  0  0  0  0  0  0  0
  1  4  1  0  0  0  0
  1  6  2  0  0  0  0
  1 17  1  0  0  0  0
  2  4  2  0  0  0  0
  2 13  1  0  0  0  0
  2 18  1  0  0  0  0
  3  5  2  0  0  0  0
  3 16  1  0  0  0  0
  3 19  1  0  0  0  0
  4  5  1  0  0  0  0
  5 11  1  0  0  0  0
  6  9  1  0  0  0  0
  6 13  1  0  0  0  0
  7 11  2  0  0  0  0
  7 15  1  0  0  0  0
  7 16  1  0  0  0  0
  8 12  2  0  0  0  0
  8 14  1  0  0  0  0
  8 15  1  0  0  0  0
  9 20  1  0  0  0  0
  9 21  1  0  0  0  0
  9 22  1  0  0  0  0
 10 13  1  0  0  0  0
 10 23  1  0  0  0  0
 10 24  1  0  0  0  0
 10 25  1  0  0  0  0
 12 26  1  0  0  0  0
 14 27  1  0  0  0  0
 14 28  1  0  0  0  0
 15 29  1  0  0  0  0
M  END
$$$$
CHEMBL405398_1
 OpenBabel06162213483D

 48 51  0  0  0  0  0  0  0  0999 V2000
    2.8660   -2.8833   -7.4592 C   0  0  0  0  0  0  0  0  0  0  0  0
    1.7524   -2.2094   -6.9578 C   0  0  0  0  0  0  0  0  0  0  0  0
    3.8449   -3.3585   -6.5864 C   0  0  0  0  0  0  0  0  0  0  0  0
   -3.6091    1.1411   -5.5693 C   0  0  0  0  0  0  0  0  0  0  0  0
   -3.0325    2.1792   -4.8480 C   0  0  0  0  0  0  0  0  0  0  0  0
   -1.0671    1.0351   -4.6027 C   0  0  0  0  0  0  0  0  0  0  0  0
   -2.5929   -2.1074   -6.6985 C   0  0  0  0  0  0  0  0  0  0  0  0
   -1.5640   -0.0578   -5.3182 C   0  0  0  0  0  0  0  0  0  0  0  0
   -2.8708   -0.0088   -5.8176 C   0  0  0  0  0  0  0  0  0  0  0  0
    1.6178   -2.0106   -5.5838 C   0  0  0  0  0  0  0  0  0  0  0  0
    2.5967   -2.4858   -4.7110 C   0  0  0  0  0  0  0  0  0  0  0  0
    3.7103   -3.1597   -5.2124 C   0  0  0  0  0  0  0  0  0  0  0  0
   -0.8390   -1.2181   -5.5768 C   0  0  0  0  0  0  0  0  0  0  0  0
    1.3862   -0.7681    0.3696 C   0  0  0  0  0  0  0  0  0  0  0  0
   -0.4011   -1.6256   -0.9977 C   0  0  0  0  0  0  0  0  0  0  0  0
    0.6262    0.5500    0.4864 C   0  0  0  0  0  0  0  0  0  0  0  0
   -1.1183   -0.2868   -0.8495 C   0  0  0  0  0  0  0  0  0  0  0  0
    1.7598   -2.6979   -1.0293 C   0  0  0  0  0  0  0  0  0  0  0  0
    1.7822   -3.1998   -2.4633 C   0  0  0  0  0  0  0  0  0  0  0  0
   -1.7763    2.1555   -4.3567 N   0  0  0  0  0  0  0  0  0  0  0  0
   -3.3921   -1.0362   -6.5117 N   0  0  0  0  0  0  0  0  0  0  0  0
   -1.3298   -2.2639   -6.2672 N   0  0  0  0  0  0  0  0  0  0  0  0
    1.0516   -1.4260   -0.9012 N   0  0  0  0  0  0  0  0  0  0  0  0
    0.4804   -1.3250   -5.1009 N   0  0  0  0  0  0  0  0  0  0  0  0
    2.4513   -2.2818   -3.3448 N   0  0  0  0  0  0  0  0  0  0  0  0
   -0.7809    0.3227    0.3970 O   0  0  0  0  0  0  0  0  0  0  0  0
    5.0751   -3.8284   -4.0739 Br  0  0  0  0  0  0  0  0  0  0  0  0
    2.9709   -3.0379   -8.5290 H   0  0  0  0  0  0  0  0  0  0  0  0
    0.9965   -1.8439   -7.6480 H   0  0  0  0  0  0  0  0  0  0  0  0
    4.7052   -3.8810   -6.9965 H   0  0  0  0  0  0  0  0  0  0  0  0
   -4.6283    1.2369   -5.9323 H   0  0  0  0  0  0  0  0  0  0  0  0
   -3.5913    3.0866   -4.6431 H   0  0  0  0  0  0  0  0  0  0  0  0
   -0.0621    1.0517   -4.1923 H   0  0  0  0  0  0  0  0  0  0  0  0
   -3.0178   -2.9314   -7.2589 H   0  0  0  0  0  0  0  0  0  0  0  0
    2.4619   -0.5649    0.4206 H   0  0  0  0  0  0  0  0  0  0  0  0
    1.1218   -1.4173    1.2145 H   0  0  0  0  0  0  0  0  0  0  0  0
   -0.7437   -2.3121   -0.2125 H   0  0  0  0  0  0  0  0  0  0  0  0
   -0.6613   -2.0622   -1.9686 H   0  0  0  0  0  0  0  0  0  0  0  0
    0.8283    1.0108    1.4587 H   0  0  0  0  0  0  0  0  0  0  0  0
    0.9320    1.2628   -0.2889 H   0  0  0  0  0  0  0  0  0  0  0  0
   -0.8723    0.3982   -1.6702 H   0  0  0  0  0  0  0  0  0  0  0  0
   -2.2020   -0.4410   -0.8615 H   0  0  0  0  0  0  0  0  0  0  0  0
    2.7728   -2.5486   -0.6424 H   0  0  0  0  0  0  0  0  0  0  0  0
    1.2442   -3.4186   -0.3868 H   0  0  0  0  0  0  0  0  0  0  0  0
    2.3189   -4.1517   -2.5231 H   0  0  0  0  0  0  0  0  0  0  0  0
    0.7688   -3.3478   -2.8499 H   0  0  0  0  0  0  0  0  0  0  0  0
    0.6529   -0.8098   -4.2440 H   0  0  0  0  0  0  0  0  0  0  0  0
    2.8422   -1.4304   -2.9498 H   0  0  0  0  0  0  0  0  0  0  0  0
  1  2  2  0  0  0  0
  1  3  1  0  0  0  0
  1 28  1  0  0  0  0
  2 10  1  0  0  0  0
  2 29  1  0  0  0  0
  3 12  2  0  0  0  0
  3 30  1  0  0  0  0
  4  5  2  0  0  0  0
  4  9  1  0  0  0  0
  4 31  1  0  0  0  0
  5 20  1  0  0  0  0
  5 32  1  0  0  0  0
  6  8  1  0  0  0  0
  6 20  2  0  0  0  0
  6 33  1  0  0  0  0
  7 21  2  0  0  0  0
  7 22  1  0  0  0  0
  7 34  1  0  0  0  0
  8  9  2  0  0  0  0
  8 13  1  0  0  0  0
  9 21  1  0  0  0  0
 10 11  2  0  0  0  0
 10 24  1  0  0  0  0
 11 12  1  0  0  0  0
 11 25  1  0  0  0  0
 12 27  1  0  0  0  0
 13 22  2  0  0  0  0
 13 24  1  0  0  0  0
 14 16  1  0  0  0  0
 14 23  1  0  0  0  0
 14 35  1  0  0  0  0
 14 36  1  0  0  0  0
 15 17  1  0  0  0  0
 15 23  1  0  0  0  0
 15 37  1  0  0  0  0
 15 38  1  0  0  0  0
 16 26  1  0  0  0  0
 16 39  1  0  0  0  0
 16 40  1  0  0  0  0
 17 26  1  0  0  0  0
 17 41  1  0  0  0  0
 17 42  1  0  0  0  0
 18 19  1  0  0  0  0
 18 23  1  0  0  0  0
 18 43  1  0  0  0  0
 18 44  1  0  0  0  0
 19 25  1  0  0  0  0
 19 45  1  0  0  0  0
 19 46  1  0  0  0  0
 24 47  1  0  0  0  0
 25 48  1  0  0  0  0
M  END
$$$$
CHEMBL503634_1
 OpenBabel06162213483D

 36 37  0  0  0  0  0  0  0  0999 V2000
   -1.9646   -2.7970    3.0984 C   0  0  0  0  0  0  0  0  0  0  0  0
   -2.7663   -1.1212    4.6430 C   0  0  0  0  0  0  0  0  0  0  0  0
   -2.3183   -3.7990    4.0019 C   0  0  0  0  0  0  0  0  0  0  0  0
   -3.1200   -2.1232    5.5466 C   0  0  0  0  0  0  0  0  0  0  0  0
    1.8851   -1.0363   -0.1124 C   0  0  0  0  0  0  0  0  0  0  0  0
    0.7638   -0.4841    1.9551 C   0  0  0  0  0  0  0  0  0  0  0  0
   -2.1886   -1.4580    3.4189 C   0  0  0  0  0  0  0  0  0  0  0  0
   -2.8960   -3.4622    5.2260 C   0  0  0  0  0  0  0  0  0  0  0  0
    0.8066   -0.4630    0.5610 C   0  0  0  0  0  0  0  0  0  0  0  0
    2.9210   -1.6309    0.6081 C   0  0  0  0  0  0  0  0  0  0  0  0
    1.7997   -1.0786    2.6757 C   0  0  0  0  0  0  0  0  0  0  0  0
    2.8783   -1.6520    2.0022 C   0  0  0  0  0  0  0  0  0  0  0  0
   -0.3640    0.1174    2.6578 C   0  0  0  0  0  0  0  0  0  0  0  0
    3.7603   -3.6208    3.0030 C   0  0  0  0  0  0  0  0  0  0  0  0
   -1.8068   -0.3745    2.4418 C   0  0  0  0  0  0  0  0  0  0  0  0
   -0.1908    1.1230    3.4851 N   0  0  0  0  0  0  0  0  0  0  0  0
   -3.2422   -4.4402    6.1070 O   0  0  0  0  0  0  0  0  0  0  0  0
   -0.1953    0.1115   -0.1630 O   0  0  0  0  0  0  0  0  0  0  0  0
    3.9684   -2.1880   -0.0615 O   0  0  0  0  0  0  0  0  0  0  0  0
    1.7655   -1.1041    4.0394 O   0  0  0  0  0  0  0  0  0  0  0  0
    3.8921   -2.2329    2.7052 O   0  0  0  0  0  0  0  0  0  0  0  0
   -1.5150   -3.0685    2.1471 H   0  0  0  0  0  0  0  0  0  0  0  0
   -2.9444   -0.0805    4.9013 H   0  0  0  0  0  0  0  0  0  0  0  0
   -2.1415   -4.8405    3.7463 H   0  0  0  0  0  0  0  0  0  0  0  0
   -3.5699   -1.8544    6.4982 H   0  0  0  0  0  0  0  0  0  0  0  0
    1.9181   -1.0214   -1.1991 H   0  0  0  0  0  0  0  0  0  0  0  0
    4.6342   -3.9581    3.5656 H   0  0  0  0  0  0  0  0  0  0  0  0
    3.6717   -4.1872    2.0725 H   0  0  0  0  0  0  0  0  0  0  0  0
    2.8615   -3.7712    3.6058 H   0  0  0  0  0  0  0  0  0  0  0  0
   -1.9333   -0.7666    1.4245 H   0  0  0  0  0  0  0  0  0  0  0  0
   -2.4901    0.4787    2.5022 H   0  0  0  0  0  0  0  0  0  0  0  0
   -1.0736    1.4478    3.8918 H   0  0  0  0  0  0  0  0  0  0  0  0
   -3.6294   -4.0505    6.9071 H   0  0  0  0  0  0  0  0  0  0  0  0
   -0.0072    0.0374   -1.1115 H   0  0  0  0  0  0  0  0  0  0  0  0
    3.8447   -2.0896   -1.0186 H   0  0  0  0  0  0  0  0  0  0  0  0
    2.5542   -1.5501    4.3840 H   0  0  0  0  0  0  0  0  0  0  0  0
  1  3  2  0  0  0  0
  1  7  1  0  0  0  0
  1 22  1  0  0  0  0
  2  4  1  0  0  0  0
  2  7  2  0  0  0  0
  2 23  1  0  0  0  0
  3  8  1  0  0  0  0
  3 24  1  0  0  0  0
  4  8  2  0  0  0  0
  4 25  1  0  0  0  0
  5  9  2  0  0  0  0
  5 10  1  0  0  0  0
  5 26  1  0  0  0  0
  6  9  1  0  0  0  0
  6 11  2  0  0  0  0
  6 13  1  0  0  0  0
  7 15  1  0  0  0  0
  8 17  1  0  0  0  0
  9 18  1  0  0  0  0
 10 12  2  0  0  0  0
 10 19  1  0  0  0  0
 11 12  1  0  0  0  0
 11 20  1  0  0  0  0
 12 21  1  0  0  0  0
 13 15  1  0  0  0  0
 13 16  2  0  0  0  0
 14 21  1  0  0  0  0
 14 27  1  0  0  0  0
 14 28  1  0  0  0  0
 14 29  1  0  0  0  0
 15 30  1  0  0  0  0
 15 31  1  0  0  0  0
 16 32  1  0  0  0  0
 17 33  1  0  0  0  0
 18 34  1  0  0  0  0
 19 35  1  0  0  0  0
 20 36  1  0  0  0  0
M  END
$$$$
CHEMBL503643_1
 OpenBabel06162213483D

 27 28  0  0  0  0  0  0  0  0999 V2000
   -0.7671    0.1975    0.7446 C   0  0  0  0  0  0  0  0  0  0  0  0
   -1.8022   -0.7245    0.9247 C   0  0  0  0  0  0  0  0  0  0  0  0
   -1.6773    1.6439    2.4698 C   0  0  0  0  0  0  0  0  0  0  0  0
   -3.8586    0.6897    3.5356 C   0  0  0  0  0  0  0  0  0  0  0  0
   -2.7304    0.7292    2.6692 C   0  0  0  0  0  0  0  0  0  0  0  0
   -0.7036    1.3640    1.5041 C   0  0  0  0  0  0  0  0  0  0  0  0
   -2.7685   -0.4315    1.8936 C   0  0  0  0  0  0  0  0  0  0  0  0
   -4.5471   -0.4724    3.2738 C   0  0  0  0  0  0  0  0  0  0  0  0
    0.4002    2.3149    1.2898 C   0  0  0  0  0  0  0  0  0  0  0  0
   -5.7450   -0.9502    3.8886 C   0  0  0  0  0  0  0  0  0  0  0  0
   -7.6149   -4.0574    3.2060 C   0  0  0  0  0  0  0  0  0  0  0  0
   -7.3499   -2.7433    3.9093 C   0  0  0  0  0  0  0  0  0  0  0  0
   -3.8818   -1.1421    2.2822 N   0  0  0  0  0  0  0  0  0  0  0  0
    0.4406    3.3870    2.0016 O   0  0  0  0  0  1  0  0  0  0  0  0
    1.2876    2.0424    0.3976 O   0  0  0  0  0  0  0  0  0  0  0  0
   -6.3791   -0.3635    4.7959 O   0  0  0  0  0  0  0  0  0  0  0  0
   -6.1572   -2.1599    3.3738 O   0  0  0  0  0  0  0  0  0  0  0  0
   -0.0054   -0.0098   -0.0040 H   0  0  0  0  0  0  0  0  0  0  0  0
   -1.8500   -1.6323    0.3324 H   0  0  0  0  0  0  0  0  0  0  0  0
   -1.6250    2.5543    3.0613 H   0  0  0  0  0  0  0  0  0  0  0  0
   -4.1333    1.4342    4.2709 H   0  0  0  0  0  0  0  0  0  0  0  0
   -7.7531   -3.9042    2.1320 H   0  0  0  0  0  0  0  0  0  0  0  0
   -6.7827   -4.7522    3.3597 H   0  0  0  0  0  0  0  0  0  0  0  0
   -8.5106   -4.5388    3.6123 H   0  0  0  0  0  0  0  0  0  0  0  0
   -7.2126   -2.9036    4.9829 H   0  0  0  0  0  0  0  0  0  0  0  0
   -8.1819   -2.0500    3.7539 H   0  0  0  0  0  0  0  0  0  0  0  0
   -4.1648   -2.0291    1.8887 H   0  0  0  0  0  0  0  0  0  0  0  0
  1  2  2  0  0  0  0
  1  6  1  0  0  0  0
  1 18  1  0  0  0  0
  2  7  1  0  0  0  0
  2 19  1  0  0  0  0
  3  5  1  0  0  0  0
  3  6  2  0  0  0  0
  3 20  1  0  0  0  0
  4  5  1  0  0  0  0
  4  8  2  0  0  0  0
  4 21  1  0  0  0  0
  5  7  2  0  0  0  0
  6  9  1  0  0  0  0
  7 13  1  0  0  0  0
  8 10  1  0  0  0  0
  8 13  1  0  0  0  0
  9 14  1  0  0  0  0
  9 15  2  0  0  0  0
 10 16  2  0  0  0  0
 10 17  1  0  0  0  0
 11 12  1  0  0  0  0
 11 22  1  0  0  0  0
 11 23  1  0  0  0  0
 11 24  1  0  0  0  0
 12 17  1  0  0  0  0
 12 25  1  0  0  0  0
 12 26  1  0  0  0  0
 13 27  1  0  0  0  0
M  END
$$$$
CHEMBL503870_1
 OpenBabel06162213483D

 79 81  0  0  1  0  0  0  0  0999 V2000
    1.0565    9.8259   -4.1455 C   0  0  0  0  0  0  0  0  0  0  0  0
    0.4097    9.9037   -2.9121 C   0  0  0  0  0  0  0  0  0  0  0  0
    0.4977    9.0756   -5.1801 C   0  0  0  0  0  0  0  0  0  0  0  0
    0.5383    4.3570   -4.7480 C   0  0  0  0  0  0  0  0  0  0  0  0
    6.3315   -1.3570   -2.5615 C   0  0  0  0  0  0  0  0  0  0  0  0
   -0.7960    9.2310   -2.7133 C   0  0  0  0  0  0  0  0  0  0  0  0
   -0.7080    8.4029   -4.9812 C   0  0  0  0  0  0  0  0  0  0  0  0
    0.9434    3.6342   -3.6005 C   0  0  0  0  0  0  0  0  0  0  0  0
    5.4658   -0.2395   -2.6308 C   0  0  0  0  0  0  0  0  0  0  0  0
    1.5989    4.3107   -5.6227 C   0  0  0  0  0  0  0  0  0  0  0  0
    5.6618   -2.3970   -3.1630 C   0  0  0  0  0  0  0  0  0  0  0  0
   -1.3548    8.4805   -3.7479 C   0  0  0  0  0  0  0  0  0  0  0  0
    2.2225    3.1975   -3.8559 C   0  0  0  0  0  0  0  0  0  0  0  0
    4.3287   -0.6762   -3.2700 C   0  0  0  0  0  0  0  0  0  0  0  0
    1.4749   -0.4828   -1.2667 C   0  0  0  0  0  0  0  0  0  0  0  0
    0.3321   -0.6605   -0.5904 C   0  0  0  0  0  0  0  0  0  0  0  0
    1.9437    0.9044   -1.5571 C   0  0  0  0  0  0  0  0  0  0  0  0
   -0.1325   -2.0468   -0.2772 C   0  0  0  0  0  0  0  0  0  0  0  0
   -1.4098   -3.8302    2.1694 C   0  0  0  0  0  0  0  0  0  0  0  0
   -3.3427    2.5631   -0.8414 C   0  0  0  0  0  0  0  0  0  0  0  0
   -3.0412   -0.5386   -0.0044 C   0  0  0  0  0  0  0  0  0  0  0  0
   -3.4681    5.6546   -2.7996 C   0  0  0  0  0  0  0  0  0  0  0  0
   -4.2587    2.4591   -3.1733 C   0  0  0  0  0  0  0  0  0  0  0  0
   -4.9978    0.1245    1.4179 C   0  0  0  0  0  0  0  0  0  0  0  0
   -2.6516    7.7565   -3.5346 C   0  0  0  0  0  0  0  0  0  0  0  0
    3.2092    2.3900   -3.0632 C   0  0  0  0  0  0  0  0  0  0  0  0
    3.0441   -0.0014   -3.6555 C   0  0  0  0  0  0  0  0  0  0  0  0
   -1.9206   -3.4168    0.8084 C   0  0  0  0  0  0  0  0  0  0  0  0
   -3.9685    3.3568   -1.9806 C   0  0  2  0  0  0  0  0  0  0  0  0
   -3.7862    0.6202    0.6433 C   0  0  2  0  0  0  0  0  0  0  0  0
   -1.9567   -5.0220    2.5942 N   0  0  0  0  0  0  0  0  0  0  0  0
   -4.1701    1.5375   -0.3971 N   0  0  0  0  0  0  0  0  0  0  0  0
   -2.0681   -1.0601    0.8351 N   0  0  0  0  0  0  0  0  0  0  0  0
   -3.0628    4.4186   -2.3325 N   0  0  0  0  0  0  0  0  0  0  0  0
    2.6896    1.0707   -2.7275 N   0  0  0  0  0  0  0  0  0  0  0  0
   -1.3231   -2.1513    0.4251 N   0  0  0  0  0  0  0  0  0  0  0  0
    1.6866    1.8149   -0.7679 O   0  0  0  0  0  0  0  0  0  0  0  0
    0.5279   -3.0210   -0.6405 O   0  0  0  0  0  0  0  0  0  0  0  0
   -0.5687   -3.2014    2.8059 O   0  0  0  0  0  0  0  0  0  0  0  0
   -2.2175    2.7926   -0.4029 O   0  0  0  0  0  0  0  0  0  0  0  0
   -3.3141   -0.9723   -1.1219 O   0  0  0  0  0  0  0  0  0  0  0  0
   -4.6306    6.0052   -2.9733 O   0  0  0  0  0  0  0  0  0  0  0  0
    2.6294    3.6057   -5.0865 O   0  0  0  0  0  0  0  0  0  0  0  0
    4.4402   -1.9903   -3.5977 O   0  0  0  0  0  0  0  0  0  0  0  0
   -2.3765    6.4398   -3.0433 O   0  0  0  0  0  0  0  0  0  0  0  0
    1.9946   10.3509   -4.3005 H   0  0  0  0  0  0  0  0  0  0  0  0
    0.8441   10.4888   -2.1068 H   0  0  0  0  0  0  0  0  0  0  0  0
    1.0004    9.0157   -6.1408 H   0  0  0  0  0  0  0  0  0  0  0  0
   -0.4079    4.8504   -4.9163 H   0  0  0  0  0  0  0  0  0  0  0  0
    7.3198   -1.3994   -2.1271 H   0  0  0  0  0  0  0  0  0  0  0  0
   -1.2928    9.2970   -1.7489 H   0  0  0  0  0  0  0  0  0  0  0  0
   -1.1359    7.8205   -5.7930 H   0  0  0  0  0  0  0  0  0  0  0  0
    0.3718    3.4559   -2.7008 H   0  0  0  0  0  0  0  0  0  0  0  0
    5.6504    0.7586   -2.2598 H   0  0  0  0  0  0  0  0  0  0  0  0
    1.7690    4.7079   -6.6126 H   0  0  0  0  0  0  0  0  0  0  0  0
    5.9041   -3.4326   -3.3513 H   0  0  0  0  0  0  0  0  0  0  0  0
    2.0933   -1.3190   -1.5696 H   0  0  0  0  0  0  0  0  0  0  0  0
   -0.2744    0.1831   -0.2843 H   0  0  0  0  0  0  0  0  0  0  0  0
   -3.3452    1.9746   -3.5370 H   0  0  0  0  0  0  0  0  0  0  0  0
   -4.9700    1.6688   -2.9113 H   0  0  0  0  0  0  0  0  0  0  0  0
   -4.6811    3.0369   -4.0024 H   0  0  0  0  0  0  0  0  0  0  0  0
   -5.6884   -0.4213    0.7668 H   0  0  0  0  0  0  0  0  0  0  0  0
   -4.6946   -0.5453    2.2298 H   0  0  0  0  0  0  0  0  0  0  0  0
   -5.5526    0.9583    1.8635 H   0  0  0  0  0  0  0  0  0  0  0  0
   -3.2803    8.2842   -2.8093 H   0  0  0  0  0  0  0  0  0  0  0  0
   -3.2118    7.6800   -4.4727 H   0  0  0  0  0  0  0  0  0  0  0  0
    4.1381    2.2531   -3.6276 H   0  0  0  0  0  0  0  0  0  0  0  0
    3.4690    2.8956   -2.1272 H   0  0  0  0  0  0  0  0  0  0  0  0
    3.1218    0.4325   -4.6584 H   0  0  0  0  0  0  0  0  0  0  0  0
    2.2148   -0.7163   -3.6738 H   0  0  0  0  0  0  0  0  0  0  0  0
   -3.0063   -3.2887    0.8212 H   0  0  0  0  0  0  0  0  0  0  0  0
   -1.6425   -4.1723    0.0685 H   0  0  0  0  0  0  0  0  0  0  0  0
   -4.8920    3.8316   -1.6316 H   0  0  0  0  0  0  0  0  0  0  0  0
   -3.1078    1.1630    1.3106 H   0  0  0  0  0  0  0  0  0  0  0  0
   -2.6229   -5.5249    2.0174 H   0  0  0  0  0  0  0  0  0  0  0  0
   -1.7191   -5.4416    3.4874 H   0  0  0  0  0  0  0  0  0  0  0  0
   -5.1036    1.4488   -0.7936 H   0  0  0  0  0  0  0  0  0  0  0  0
   -1.8521   -0.6827    1.7522 H   0  0  0  0  0  0  0  0  0  0  0  0
   -2.0642    4.2491   -2.2314 H   0  0  0  0  0  0  0  0  0  0  0  0
  1  2  2  0  0  0  0
  1  3  1  0  0  0  0
  1 46  1  0  0  0  0
  2  6  1  0  0  0  0
  2 47  1  0  0  0  0
  3  7  2  0  0  0  0
  3 48  1  0  0  0  0
  4  8  1  0  0  0  0
  4 10  2  0  0  0  0
  4 49  1  0  0  0  0
  5  9  1  0  0  0  0
  5 11  2  0  0  0  0
  5 50  1  0  0  0  0
  6 12  2  0  0  0  0
  6 51  1  0  0  0  0
  7 12  1  0  0  0  0
  7 52  1  0  0  0  0
  8 13  2  0  0  0  0
  8 53  1  0  0  0  0
  9 14  2  0  0  0  0
  9 54  1  0  0  0  0
 10 43  1  0  0  0  0
 10 55  1  0  0  0  0
 11 44  1  0  0  0  0
 11 56  1  0  0  0  0
 12 25  1  0  0  0  0
 13 26  1  0  0  0  0
 13 43  1  0  0  0  0
 14 27  1  0  0  0  0
 14 44  1  0  0  0  0
 15 16  2  0  0  0  0
 15 17  1  0  0  0  0
 15 57  1  0  0  0  0
 16 18  1  0  0  0  0
 16 58  1  0  0  0  0
 17 35  1  0  0  0  0
 17 37  2  0  0  0  0
 18 36  1  0  0  0  0
 18 38  2  0  0  0  0
 19 28  1  0  0  0  0
 19 31  1  0  0  0  0
 19 39  2  0  0  0  0
 20 29  1  0  0  0  0
 20 32  1  0  0  0  0
 20 40  2  0  0  0  0
 21 30  1  0  0  0  0
 21 33  1  0  0  0  0
 21 41  2  0  0  0  0
 22 34  1  0  0  0  0
 22 42  2  0  0  0  0
 22 45  1  0  0  0  0
 23 29  1  0  0  0  0
 23 59  1  0  0  0  0
 23 60  1  0  0  0  0
 23 61  1  0  0  0  0
 24 30  1  0  0  0  0
 24 62  1  0  0  0  0
 24 63  1  0  0  0  0
 24 64  1  0  0  0  0
 25 45  1  0  0  0  0
 25 65  1  0  0  0  0
 25 66  1  0  0  0  0
 26 35  1  0  0  0  0
 26 67  1  0  0  0  0
 26 68  1  0  0  0  0
 27 35  1  0  0  0  0
 27 69  1  0  0  0  0
 27 70  1  0  0  0  0
 28 36  1  0  0  0  0
 28 71  1  0  0  0  0
 28 72  1  0  0  0  0
 29 34  1  0  0  0  0
 29 73  1  1  0  0  0
 30 32  1  0  0  0  0
 30 74  1  1  0  0  0
 31 75  1  0  0  0  0
 31 76  1  0  0  0  0
 32 77  1  0  0  0  0
 33 36  1  0  0  0  0
 33 78  1  0  0  0  0
 34 79  1  0  0  0  0
M  END
$$$$
CHEMBL504077_1
 OpenBabel06162213483D

 80 87  0  0  1  0  0  0  0  0999 V2000
   -8.3716    2.7216    0.1589 C   0  0  0  0  0  0  0  0  0  0  0  0
    2.4610   -0.1297    0.5944 C   0  0  0  0  0  0  0  0  0  0  0  0
    1.6181    0.4012    1.5705 C   0  0  0  0  0  0  0  0  0  0  0  0
   -0.3296    1.2498    3.7398 C   0  0  0  0  0  0  0  0  0  0  0  0
   -7.0548    2.5906   -0.2782 C   0  0  0  0  0  0  0  0  0  0  0  0
   -9.2992    1.7351   -0.1448 C   0  0  0  0  0  0  0  0  0  0  0  0
   -1.2368    1.7978    4.6517 C   0  0  0  0  0  0  0  0  0  0  0  0
    2.8382   -1.0977   -1.5931 C   0  0  0  0  0  0  0  0  0  0  0  0
    0.0827   -0.9712   -2.1321 C   0  0  0  0  0  0  0  0  0  0  0  0
    1.9542   -0.5964   -0.6202 C   0  0  0  0  0  0  0  0  0  0  0  0
    0.5497   -0.5428   -0.8642 C   0  0  0  0  0  0  0  0  0  0  0  0
   -0.6881    1.0295    2.3987 C   0  0  0  0  0  0  0  0  0  0  0  0
    0.2305    0.4616    1.3821 C   0  0  0  0  0  0  0  0  0  0  0  0
   -6.6480    1.4697   -1.0256 C   0  0  0  0  0  0  0  0  0  0  0  0
   -2.0037    1.3627    2.0066 C   0  0  0  0  0  0  0  0  0  0  0  0
   -0.3095   -0.0329    0.1597 C   0  0  0  0  0  0  0  0  0  0  0  0
   -7.5853    0.4701   -1.3338 C   0  0  0  0  0  0  0  0  0  0  0  0
    2.3228   -1.5196   -2.7983 C   0  0  0  0  0  0  0  0  0  0  0  0
    0.9814   -1.4535   -3.0629 C   0  0  0  0  0  0  0  0  0  0  0  0
   -8.9107    0.6178   -0.8850 C   0  0  0  0  0  0  0  0  0  0  0  0
   -2.5224    2.1359    4.2443 C   0  0  0  0  0  0  0  0  0  0  0  0
   -2.9070    1.9196    2.9251 C   0  0  0  0  0  0  0  0  0  0  0  0
   -3.5115    0.1456   -2.6429 C   0  0  0  0  0  0  0  0  0  0  0  0
   -2.6343    1.1069   -2.3407 C   0  0  0  0  0  0  0  0  0  0  0  0
   -5.2612    1.3274   -1.4891 C   0  0  0  0  0  0  0  0  0  0  0  0
   -4.8813    0.2552   -2.2017 C   0  0  0  0  0  0  0  0  0  0  0  0
   -5.8571   -0.8276   -2.5456 C   0  0  0  0  0  0  0  0  0  0  0  0
    1.9825   -2.2679   -4.7979 C   0  0  0  0  0  0  0  0  0  0  0  0
   -2.4315    1.1312    0.5719 C   0  0  1  0  0  0  0  0  0  0  0  0
   -3.0311    2.3235   -1.5410 C   0  0  2  0  0  0  0  0  0  0  0  0
   -2.7868    3.5856   -2.3749 C   0  0  0  0  0  0  0  0  0  0  0  0
   -8.1124   -1.7324   -2.4358 C   0  0  0  0  0  0  0  0  0  0  0  0
   -2.3643   -1.3206    0.0818 C   0  0  0  0  0  0  0  0  0  0  0  0
  -10.6791   -0.0991   -2.3043 C   0  0  0  0  0  0  0  0  0  0  0  0
   -2.9130    2.8601    6.4756 C   0  0  0  0  0  0  0  0  0  0  0  0
   -5.1755    1.2547    2.6646 C   0  0  0  0  0  0  0  0  0  0  0  0
   -2.2242    2.3817   -0.2878 C   0  0  0  0  0  0  0  0  0  0  0  0
   -7.1705   -0.6696   -2.0939 N   0  0  0  0  0  0  0  0  0  0  0  0
   -1.7139   -0.0131   -0.0168 N   0  0  0  0  0  0  0  0  0  0  0  0
   -5.4625   -1.7942   -3.2018 O   0  0  0  0  0  0  0  0  0  0  0  0
    3.0347   -2.0225   -3.8426 O   0  0  0  0  0  0  0  0  0  0  0  0
    0.6753   -1.9029   -4.3104 O   0  0  0  0  0  0  0  0  0  0  0  0
   -4.4167    2.3592   -1.1381 O   0  0  0  0  0  0  0  0  0  0  0  0
   -9.9096   -0.2815   -1.1185 O   0  0  0  0  0  0  0  0  0  0  0  0
   -3.3914    2.6730    5.1448 O   0  0  0  0  0  0  0  0  0  0  0  0
   -4.1718    2.2586    2.5398 O   0  0  0  0  0  0  0  0  0  0  0  0
   -8.6697    3.5920    0.7355 H   0  0  0  0  0  0  0  0  0  0  0  0
    3.5309   -0.1548    0.7944 H   0  0  0  0  0  0  0  0  0  0  0  0
    2.0831    0.7753    2.4788 H   0  0  0  0  0  0  0  0  0  0  0  0
    0.6588    0.9927    4.1110 H   0  0  0  0  0  0  0  0  0  0  0  0
   -6.3537    3.3817   -0.0221 H   0  0  0  0  0  0  0  0  0  0  0  0
  -10.3249    1.8414    0.1989 H   0  0  0  0  0  0  0  0  0  0  0  0
   -0.9284    1.9566    5.6818 H   0  0  0  0  0  0  0  0  0  0  0  0
    3.9084   -1.1472   -1.4124 H   0  0  0  0  0  0  0  0  0  0  0  0
   -0.9698   -0.9224   -2.3958 H   0  0  0  0  0  0  0  0  0  0  0  0
   -3.1931   -0.7159   -3.2187 H   0  0  0  0  0  0  0  0  0  0  0  0
   -1.6050    1.0150   -2.6764 H   0  0  0  0  0  0  0  0  0  0  0  0
    2.1919   -1.6920   -5.7066 H   0  0  0  0  0  0  0  0  0  0  0  0
    1.9784   -3.3346   -5.0501 H   0  0  0  0  0  0  0  0  0  0  0  0
   -3.5047    0.8967    0.5496 H   0  0  0  0  0  0  0  0  0  0  0  0
   -3.0723    4.4628   -1.7998 H   0  0  0  0  0  0  0  0  0  0  0  0
   -3.3808    3.5417   -3.2842 H   0  0  0  0  0  0  0  0  0  0  0  0
   -1.7333    3.6519   -2.6349 H   0  0  0  0  0  0  0  0  0  0  0  0
   -8.5914   -1.5027   -3.3991 H   0  0  0  0  0  0  0  0  0  0  0  0
   -7.5740   -2.6885   -2.5130 H   0  0  0  0  0  0  0  0  0  0  0  0
   -8.8813   -1.8068   -1.6527 H   0  0  0  0  0  0  0  0  0  0  0  0
   -3.4478   -1.2040   -0.0683 H   0  0  0  0  0  0  0  0  0  0  0  0
   -1.9576   -1.9914   -0.6893 H   0  0  0  0  0  0  0  0  0  0  0  0
   -2.1762   -1.7494    1.0772 H   0  0  0  0  0  0  0  0  0  0  0  0
  -11.4395   -0.8811   -2.3701 H   0  0  0  0  0  0  0  0  0  0  0  0
  -10.0217   -0.1410   -3.1764 H   0  0  0  0  0  0  0  0  0  0  0  0
  -11.1668    0.8778   -2.2648 H   0  0  0  0  0  0  0  0  0  0  0  0
   -3.7048    3.2951    7.0904 H   0  0  0  0  0  0  0  0  0  0  0  0
   -2.0431    3.5215    6.4614 H   0  0  0  0  0  0  0  0  0  0  0  0
   -2.6246    1.8908    6.8892 H   0  0  0  0  0  0  0  0  0  0  0  0
   -6.1345    1.6531    2.3247 H   0  0  0  0  0  0  0  0  0  0  0  0
   -5.2491    0.9396    3.7085 H   0  0  0  0  0  0  0  0  0  0  0  0
   -4.8997    0.3975    2.0459 H   0  0  0  0  0  0  0  0  0  0  0  0
   -2.5073    3.2602    0.2947 H   0  0  0  0  0  0  0  0  0  0  0  0
   -1.1643    2.4683   -0.5334 H   0  0  0  0  0  0  0  0  0  0  0  0
  1  5  2  0  0  0  0
  1  6  1  0  0  0  0
  1 47  1  0  0  0  0
  2  3  2  0  0  0  0
  2 10  1  0  0  0  0
  2 48  1  0  0  0  0
  3 13  1  0  0  0  0
  3 49  1  0  0  0  0
  4  7  2  0  0  0  0
  4 12  1  0  0  0  0
  4 50  1  0  0  0  0
  5 14  1  0  0  0  0
  5 51  1  0  0  0  0
  6 20  2  0  0  0  0
  6 52  1  0  0  0  0
  7 21  1  0  0  0  0
  7 53  1  0  0  0  0
  8 10  2  0  0  0  0
  8 18  1  0  0  0  0
  8 54  1  0  0  0  0
  9 11  2  0  0  0  0
  9 19  1  0  0  0  0
  9 55  1  0  0  0  0
 10 11  1  0  0  0  0
 11 16  1  0  0  0  0
 12 13  1  0  0  0  0
 12 15  2  0  0  0  0
 13 16  2  0  0  0  0
 14 17  2  0  0  0  0
 14 25  1  0  0  0  0
 15 22  1  0  0  0  0
 15 29  1  0  0  0  0
 16 39  1  0  0  0  0
 17 20  1  0  0  0  0
 17 38  1  0  0  0  0
 18 19  2  0  0  0  0
 18 41  1  0  0  0  0
 19 42  1  0  0  0  0
 20 44  1  0  0  0  0
 21 22  2  0  0  0  0
 21 45  1  0  0  0  0
 22 46  1  0  0  0  0
 23 24  2  0  0  0  0
 23 26  1  0  0  0  0
 23 56  1  0  0  0  0
 24 30  1  0  0  0  0
 24 57  1  0  0  0  0
 25 26  2  0  0  0  0
 25 43  1  0  0  0  0
 26 27  1  0  0  0  0
 27 38  1  0  0  0  0
 27 40  2  0  0  0  0
 28 41  1  0  0  0  0
 28 42  1  0  0  0  0
 28 58  1  0  0  0  0
 28 59  1  0  0  0  0
 29 37  1  0  0  0  0
 29 39  1  0  0  0  0
 29 60  1  1  0  0  0
 30 31  1  6  0  0  0
 30 37  1  0  0  0  0
 30 43  1  0  0  0  0
 31 61  1  0  0  0  0
 31 62  1  0  0  0  0
 31 63  1  0  0  0  0
 32 38  1  0  0  0  0
 32 64  1  0  0  0  0
 32 65  1  0  0  0  0
 32 66  1  0  0  0  0
 33 39  1  0  0  0  0
 33 67  1  0  0  0  0
 33 68  1  0  0  0  0
 33 69  1  0  0  0  0
 34 44  1  0  0  0  0
 34 70  1  0  0  0  0
 34 71  1  0  0  0  0
 34 72  1  0  0  0  0
 35 45  1  0  0  0  0
 35 73  1  0  0  0  0
 35 74  1  0  0  0  0
 35 75  1  0  0  0  0
 36 46  1  0  0  0  0
 36 76  1  0  0  0  0
 36 77  1  0  0  0  0
 36 78  1  0  0  0  0
 37 79  1  0  0  0  0
 37 80  1  0  0  0  0
M  END
$$$$
CHEMBL501567_1
 OpenBabel06162213483D

152157  0  0  1  0  0  0  0  0999 V2000
   -4.7520   -7.9278    7.4770 C   0  0  0  0  0  0  0  0  0  0  0  0
   -9.7572    4.2747    5.3355 C   0  0  0  0  0  0  0  0  0  0  0  0
   -4.0998   -9.0217    8.0459 C   0  0  0  0  0  0  0  0  0  0  0  0
   -5.0546   -7.9271    6.1153 C   0  0  0  0  0  0  0  0  0  0  0  0
  -10.6033    5.3676    5.5135 C   0  0  0  0  0  0  0  0  0  0  0  0
   -9.3174    3.9100    4.0578 C   0  0  0  0  0  0  0  0  0  0  0  0
   -3.7502  -10.1148    7.2531 C   0  0  0  0  0  0  0  0  0  0  0  0
   -4.7050   -9.0202    5.3225 C   0  0  0  0  0  0  0  0  0  0  0  0
  -11.0358    6.1292    4.4241 C   0  0  0  0  0  0  0  0  0  0  0  0
  -10.1926    5.6068    0.9409 C   0  0  0  0  0  0  0  0  0  0  0  0
   -3.1790    2.4068    2.8935 C   0  0  0  0  0  0  0  0  0  0  0  0
   -2.5631    0.7132    4.1620 C   0  0  0  0  0  0  0  0  0  0  0  0
   -9.7403    4.6628    2.9444 C   0  0  0  0  0  0  0  0  0  0  0  0
   -4.0528  -10.1141    5.8914 C   0  0  0  0  0  0  0  0  0  0  0  0
   -9.4993    4.5830    1.5442 C   0  0  0  0  0  0  0  0  0  0  0  0
  -10.5881    5.7528    3.1528 C   0  0  0  0  0  0  0  0  0  0  0  0
   -3.1991    1.2223    2.1956 C   0  0  0  0  0  0  0  0  0  0  0  0
   -6.1889    6.1557    1.1285 C   0  0  0  0  0  0  0  0  0  0  0  0
   -1.4864   -9.1604    3.1699 C   0  0  0  0  0  0  0  0  0  0  0  0
   -2.3422   -6.1819    2.7362 C   0  0  0  0  0  0  0  0  0  0  0  0
   -7.1743    9.0615    1.7426 C   0  0  0  0  0  0  0  0  0  0  0  0
   -3.7800   -3.7680    1.3555 C   0  0  0  0  0  0  0  0  0  0  0  0
   -6.3310    2.8223    0.1934 C   0  0  0  0  0  0  0  0  0  0  0  0
   -5.4720   -0.5301    1.3688 C   0  0  0  0  0  0  0  0  0  0  0  0
   -1.7616  -12.5215    3.9659 C   0  0  0  0  0  0  0  0  0  0  0  0
   -0.2837  -15.2576    6.0220 C   0  0  0  0  0  0  0  0  0  0  0  0
    0.5945   -7.8714    1.2079 C   0  0  0  0  0  0  0  0  0  0  0  0
   -3.6931    8.0457    0.9279 C   0  0  0  0  0  0  0  0  0  0  0  0
   -0.5658   -8.8041    0.8692 C   0  0  0  0  0  0  0  0  0  0  0  0
   -4.5126    7.4449   -0.2116 C   0  0  0  0  0  0  0  0  0  0  0  0
   -0.1015   -6.5823    1.6177 C   0  0  0  0  0  0  0  0  0  0  0  0
   -4.6456    9.0568    1.5480 C   0  0  0  0  0  0  0  0  0  0  0  0
   -5.9291    7.4105    0.3504 C   0  0  2  0  0  0  0  0  0  0  0  0
   -1.6397   -8.4147    1.8784 C   0  0  2  0  0  0  0  0  0  0  0  0
   -0.0090   -2.3762    3.2573 C   0  0  0  0  0  0  0  0  0  0  0  0
   -0.3796   -2.6690    5.7142 C   0  0  0  0  0  0  0  0  0  0  0  0
   -7.6523   -5.7743    0.4337 C   0  0  0  0  0  0  0  0  0  0  0  0
   -6.9410   -5.0966    2.7349 C   0  0  0  0  0  0  0  0  0  0  0  0
   -3.6746  -11.2964    5.0330 C   0  0  0  0  0  0  0  0  0  0  0  0
   -8.6412    3.5629    0.8366 C   0  0  0  0  0  0  0  0  0  0  0  0
   -3.5764    0.9949    0.7521 C   0  0  0  0  0  0  0  0  0  0  0  0
   -1.3227   -4.3814    4.1346 C   0  0  0  0  0  0  0  0  0  0  0  0
   -6.2033   -3.7388    0.7033 C   0  0  0  0  0  0  0  0  0  0  0  0
   -6.9129   10.0363    4.0722 C   0  0  0  0  0  0  0  0  0  0  0  0
    1.0238  -14.1947    4.0268 C   0  0  0  0  0  0  0  0  0  0  0  0
   -1.9825   -4.7189    2.7977 C   0  0  2  0  0  0  0  0  0  0  0  0
   -7.0481   10.3131    2.5740 C   0  0  2  0  0  0  0  0  0  0  0  0
   -5.0905   -2.9930    1.4508 C   0  0  2  0  0  0  0  0  0  0  0  0
   -7.1429    3.8664    0.9515 C   0  0  2  0  0  0  0  0  0  0  0  0
   -5.0703    0.7038    0.5685 C   0  0  2  0  0  0  0  0  0  0  0  0
   -2.2766  -11.1600    4.4188 C   0  0  2  0  0  0  0  0  0  0  0  0
   -0.3157  -14.3997    4.7404 C   0  0  2  0  0  0  0  0  0  0  0  0
   -0.9786   -2.8900    4.3225 C   0  0  0  0  0  0  0  0  0  0  0  0
   -6.5323   -5.1383    1.2618 C   0  0  0  0  0  0  0  0  0  0  0  0
   -2.8150    0.1718    2.9909 N   0  0  0  0  0  0  0  0  0  0  0  0
   -2.7700    2.0647    4.1516 N   0  0  0  0  0  0  0  0  0  0  0  0
  -10.8460    6.3070    1.9193 N   0  0  0  0  0  0  0  0  0  0  0  0
   -1.3883   -7.0079    2.1623 N   0  0  0  0  0  0  0  0  0  0  0  0
   -5.9799    8.5194    1.2942 N   0  0  0  0  0  0  0  0  0  0  0  0
   -6.8043    5.1536    0.3986 N   0  0  0  0  0  0  0  0  0  0  0  0
   -2.2710  -10.2942    3.2615 N   0  0  0  0  0  0  0  0  0  0  0  0
   -3.2440   -4.0402    2.6065 N   0  0  0  0  0  0  0  0  0  0  0  0
   -4.8492   -1.6833    0.9031 N   0  0  0  0  0  0  0  0  0  0  0  0
   -5.8970    1.7938    1.0220 N   0  0  0  0  0  0  0  0  0  0  0  0
   -0.9695  -13.1252    4.9327 N   0  0  0  0  0  0  0  0  0  0  0  0
   -8.1801   11.2557    2.3575 N   0  3  0  0  0  0  0  0  0  0  0  0
   -1.1606  -14.9714    6.8872 O   0  0  0  0  0  1  0  0  0  0  0  0
   -5.8556    6.0952    2.3062 O   0  0  0  0  0  0  0  0  0  0  0  0
   -0.7122   -8.7403    4.0219 O   0  0  0  0  0  0  0  0  0  0  0  0
   -3.4189   -6.5776    3.1860 O   0  0  0  0  0  0  0  0  0  0  0  0
   -8.2836    8.5792    1.5082 O   0  0  0  0  0  0  0  0  0  0  0  0
   -3.2553   -4.0663    0.2845 O   0  0  0  0  0  0  0  0  0  0  0  0
   -6.0649    2.9206   -1.0026 O   0  0  0  0  0  0  0  0  0  0  0  0
   -6.2879   -0.4953    2.2875 O   0  0  0  0  0  0  0  0  0  0  0  0
   -1.9963  -12.9896    2.8538 O   0  0  0  0  0  0  0  0  0  0  0  0
    0.6304  -16.1280    6.0784 O   0  0  0  0  0  0  0  0  0  0  0  0
   -8.3264    9.1539    4.8141 S   0  0  0  0  0  0  0  0  0  0  0  0
    2.2759  -13.3557    5.0526 S   0  0  0  0  0  0  0  0  0  0  0  0
   -5.0253   -7.0773    8.0947 H   0  0  0  0  0  0  0  0  0  0  0  0
   -9.4340    3.6982    6.1981 H   0  0  0  0  0  0  0  0  0  0  0  0
   -3.8650   -9.0230    9.1063 H   0  0  0  0  0  0  0  0  0  0  0  0
   -5.5634   -7.0760    5.6723 H   0  0  0  0  0  0  0  0  0  0  0  0
  -10.9327    5.6331    6.5147 H   0  0  0  0  0  0  0  0  0  0  0  0
   -8.6573    3.0559    3.9358 H   0  0  0  0  0  0  0  0  0  0  0  0
   -3.2420  -10.9627    7.7049 H   0  0  0  0  0  0  0  0  0  0  0  0
   -4.9447   -9.0108    4.2625 H   0  0  0  0  0  0  0  0  0  0  0  0
  -11.6952    6.9791    4.5635 H   0  0  0  0  0  0  0  0  0  0  0  0
  -10.2791    5.9015   -0.0959 H   0  0  0  0  0  0  0  0  0  0  0  0
   -3.4100    3.4271    2.6229 H   0  0  0  0  0  0  0  0  0  0  0  0
   -2.2316    0.1896    5.0475 H   0  0  0  0  0  0  0  0  0  0  0  0
    1.1745   -8.2733    2.0467 H   0  0  0  0  0  0  0  0  0  0  0  0
    1.2708   -7.7289    0.3603 H   0  0  0  0  0  0  0  0  0  0  0  0
   -3.4317    7.2719    1.6589 H   0  0  0  0  0  0  0  0  0  0  0  0
   -2.7680    8.5080    0.5721 H   0  0  0  0  0  0  0  0  0  0  0  0
   -0.9174   -8.6006   -0.1493 H   0  0  0  0  0  0  0  0  0  0  0  0
   -0.2670   -9.8550    0.9315 H   0  0  0  0  0  0  0  0  0  0  0  0
   -4.4672    8.1055   -1.0860 H   0  0  0  0  0  0  0  0  0  0  0  0
   -4.1344    6.4589   -0.5003 H   0  0  0  0  0  0  0  0  0  0  0  0
    0.4671   -6.0134    2.3583 H   0  0  0  0  0  0  0  0  0  0  0  0
   -0.2976   -5.9433    0.7498 H   0  0  0  0  0  0  0  0  0  0  0  0
   -4.4767    9.1927    2.6197 H   0  0  0  0  0  0  0  0  0  0  0  0
   -4.5733   10.0291    1.0487 H   0  0  0  0  0  0  0  0  0  0  0  0
   -6.6994    7.5163   -0.4201 H   0  0  0  0  0  0  0  0  0  0  0  0
   -2.6569   -8.5641    1.5040 H   0  0  0  0  0  0  0  0  0  0  0  0
    0.9296   -2.9404    3.2823 H   0  0  0  0  0  0  0  0  0  0  0  0
    0.2429   -1.3242    3.4212 H   0  0  0  0  0  0  0  0  0  0  0  0
   -0.4345   -2.4738    2.2528 H   0  0  0  0  0  0  0  0  0  0  0  0
    0.5495   -3.2350    5.8418 H   0  0  0  0  0  0  0  0  0  0  0  0
   -0.1559   -1.6094    5.8779 H   0  0  0  0  0  0  0  0  0  0  0  0
   -1.0799   -2.9852    6.4945 H   0  0  0  0  0  0  0  0  0  0  0  0
   -8.5666   -5.1737    0.4892 H   0  0  0  0  0  0  0  0  0  0  0  0
   -7.8902   -6.7766    0.8056 H   0  0  0  0  0  0  0  0  0  0  0  0
   -7.3677   -5.8619   -0.6203 H   0  0  0  0  0  0  0  0  0  0  0  0
   -7.8240   -4.4660    2.8842 H   0  0  0  0  0  0  0  0  0  0  0  0
   -7.1783   -6.1016    3.1004 H   0  0  0  0  0  0  0  0  0  0  0  0
   -6.1333   -4.7082    3.3622 H   0  0  0  0  0  0  0  0  0  0  0  0
   -3.7415  -12.2192    5.6251 H   0  0  0  0  0  0  0  0  0  0  0  0
   -4.4311  -11.4048    4.2445 H   0  0  0  0  0  0  0  0  0  0  0  0
   -8.8576    2.5608    1.2309 H   0  0  0  0  0  0  0  0  0  0  0  0
   -8.9459    3.5293   -0.2178 H   0  0  0  0  0  0  0  0  0  0  0  0
   -3.2821    1.8664    0.1516 H   0  0  0  0  0  0  0  0  0  0  0  0
   -2.9731    0.1625    0.3661 H   0  0  0  0  0  0  0  0  0  0  0  0
   -0.4093   -4.9817    4.2431 H   0  0  0  0  0  0  0  0  0  0  0  0
   -1.9860   -4.6937    4.9533 H   0  0  0  0  0  0  0  0  0  0  0  0
   -5.9147   -3.8406   -0.3523 H   0  0  0  0  0  0  0  0  0  0  0  0
   -7.1159   -3.1280    0.7057 H   0  0  0  0  0  0  0  0  0  0  0  0
   -6.0177    9.4300    4.2511 H   0  0  0  0  0  0  0  0  0  0  0  0
   -6.7801   10.9745    4.6226 H   0  0  0  0  0  0  0  0  0  0  0  0
    1.4412  -15.1611    3.7230 H   0  0  0  0  0  0  0  0  0  0  0  0
    0.8862  -13.5985    3.1188 H   0  0  0  0  0  0  0  0  0  0  0  0
   -1.3370   -4.4895    1.9458 H   0  0  0  0  0  0  0  0  0  0  0  0
   -6.1572   10.8403    2.2259 H   0  0  0  0  0  0  0  0  0  0  0  0
   -5.3423   -2.8561    2.5072 H   0  0  0  0  0  0  0  0  0  0  0  0
   -6.8194    3.8814    1.9990 H   0  0  0  0  0  0  0  0  0  0  0  0
   -5.3172    0.5427   -0.4874 H   0  0  0  0  0  0  0  0  0  0  0  0
   -1.5679  -10.7284    5.1353 H   0  0  0  0  0  0  0  0  0  0  0  0
   -0.9677  -14.9532    4.0511 H   0  0  0  0  0  0  0  0  0  0  0  0
   -1.9007   -2.2989    4.2612 H   0  0  0  0  0  0  0  0  0  0  0  0
   -5.6476   -5.7800    1.1686 H   0  0  0  0  0  0  0  0  0  0  0  0
   -2.6428    2.6953    4.9318 H   0  0  0  0  0  0  0  0  0  0  0  0
  -11.4332    7.1141    1.7599 H   0  0  0  0  0  0  0  0  0  0  0  0
   -7.0289    5.3348   -0.5770 H   0  0  0  0  0  0  0  0  0  0  0  0
   -2.8725  -10.5304    2.4780 H   0  0  0  0  0  0  0  0  0  0  0  0
   -3.7474   -3.7448    3.4378 H   0  0  0  0  0  0  0  0  0  0  0  0
   -4.1875   -1.5968    0.1341 H   0  0  0  0  0  0  0  0  0  0  0  0
   -6.1777    1.8116    1.9999 H   0  0  0  0  0  0  0  0  0  0  0  0
   -0.8430  -12.6473    5.8200 H   0  0  0  0  0  0  0  0  0  0  0  0
   -7.9261   12.2008    2.6578 H   0  0  0  0  0  0  0  0  0  0  0  0
   -9.0028   10.9603    2.8906 H   0  0  0  0  0  0  0  0  0  0  0  0
   -8.4360   11.2919    1.3669 H   0  0  0  0  0  0  0  0  0  0  0  0
   -9.2398   10.0835    4.5070 H   0  0  0  0  0  0  0  0  0  0  0  0
    2.2968  -14.2799    6.0214 H   0  0  0  0  0  0  0  0  0  0  0  0
  1  3  2  0  0  0  0
  1  4  1  0  0  0  0
  1 79  1  0  0  0  0
  2  5  2  0  0  0  0
  2  6  1  0  0  0  0
  2 80  1  0  0  0  0
  3  7  1  0  0  0  0
  3 81  1  0  0  0  0
  4  8  2  0  0  0  0
  4 82  1  0  0  0  0
  5  9  1  0  0  0  0
  5 83  1  0  0  0  0
  6 13  2  0  0  0  0
  6 84  1  0  0  0  0
  7 14  2  0  0  0  0
  7 85  1  0  0  0  0
  8 14  1  0  0  0  0
  8 86  1  0  0  0  0
  9 16  2  0  0  0  0
  9 87  1  0  0  0  0
 10 15  2  0  0  0  0
 10 57  1  0  0  0  0
 10 88  1  0  0  0  0
 11 17  2  0  0  0  0
 11 56  1  0  0  0  0
 11 89  1  0  0  0  0
 12 55  2  0  0  0  0
 12 56  1  0  0  0  0
 12 90  1  0  0  0  0
 13 15  1  0  0  0  0
 13 16  1  0  0  0  0
 14 39  1  0  0  0  0
 15 40  1  0  0  0  0
 16 57  1  0  0  0  0
 17 41  1  0  0  0  0
 17 55  1  0  0  0  0
 18 33  1  0  0  0  0
 18 60  1  0  0  0  0
 18 68  2  0  0  0  0
 19 34  1  0  0  0  0
 19 61  1  0  0  0  0
 19 69  2  0  0  0  0
 20 46  1  0  0  0  0
 20 58  1  0  0  0  0
 20 70  2  0  0  0  0
 21 47  1  0  0  0  0
 21 59  1  0  0  0  0
 21 71  2  0  0  0  0
 22 48  1  0  0  0  0
 22 62  1  0  0  0  0
 22 72  2  0  0  0  0
 23 49  1  0  0  0  0
 23 64  1  0  0  0  0
 23 73  2  0  0  0  0
 24 50  1  0  0  0  0
 24 63  1  0  0  0  0
 24 74  2  0  0  0  0
 25 51  1  0  0  0  0
 25 65  1  0  0  0  0
 25 75  2  0  0  0  0
 26 52  1  0  0  0  0
 26 67  1  0  0  0  0
 26 76  2  0  0  0  0
 27 29  1  0  0  0  0
 27 31  1  0  0  0  0
 27 91  1  0  0  0  0
 27 92  1  0  0  0  0
 28 30  1  0  0  0  0
 28 32  1  0  0  0  0
 28 93  1  0  0  0  0
 28 94  1  0  0  0  0
 29 34  1  0  0  0  0
 29 95  1  0  0  0  0
 29 96  1  0  0  0  0
 30 33  1  0  0  0  0
 30 97  1  0  0  0  0
 30 98  1  0  0  0  0
 31 58  1  0  0  0  0
 31 99  1  0  0  0  0
 31100  1  0  0  0  0
 32 59  1  0  0  0  0
 32101  1  0  0  0  0
 32102  1  0  0  0  0
 33 59  1  0  0  0  0
 33103  1  6  0  0  0
 34 58  1  0  0  0  0
 34104  1  6  0  0  0
 35 53  1  0  0  0  0
 35105  1  0  0  0  0
 35106  1  0  0  0  0
 35107  1  0  0  0  0
 36 53  1  0  0  0  0
 36108  1  0  0  0  0
 36109  1  0  0  0  0
 36110  1  0  0  0  0
 37 54  1  0  0  0  0
 37111  1  0  0  0  0
 37112  1  0  0  0  0
 37113  1  0  0  0  0
 38 54  1  0  0  0  0
 38114  1  0  0  0  0
 38115  1  0  0  0  0
 38116  1  0  0  0  0
 39 51  1  0  0  0  0
 39117  1  0  0  0  0
 39118  1  0  0  0  0
 40 49  1  0  0  0  0
 40119  1  0  0  0  0
 40120  1  0  0  0  0
 41 50  1  0  0  0  0
 41121  1  0  0  0  0
 41122  1  0  0  0  0
 42 46  1  0  0  0  0
 42 53  1  0  0  0  0
 42123  1  0  0  0  0
 42124  1  0  0  0  0
 43 48  1  0  0  0  0
 43 54  1  0  0  0  0
 43125  1  0  0  0  0
 43126  1  0  0  0  0
 44 47  1  0  0  0  0
 44 77  1  0  0  0  0
 44127  1  0  0  0  0
 44128  1  0  0  0  0
 45 52  1  0  0  0  0
 45 78  1  0  0  0  0
 45129  1  0  0  0  0
 45130  1  0  0  0  0
 46 62  1  0  0  0  0
 46131  1  6  0  0  0
 47 66  1  0  0  0  0
 47132  1  6  0  0  0
 48 63  1  0  0  0  0
 48133  1  1  0  0  0
 49 60  1  0  0  0  0
 49134  1  1  0  0  0
 50 64  1  0  0  0  0
 50135  1  6  0  0  0
 51 61  1  0  0  0  0
 51136  1  1  0  0  0
 52 65  1  0  0  0  0
 52137  1  6  0  0  0
 53138  1  0  0  0  0
 54139  1  0  0  0  0
 56140  1  0  0  0  0
 57141  1  0  0  0  0
 60142  1  0  0  0  0
 61143  1  0  0  0  0
 62144  1  0  0  0  0
 63145  1  0  0  0  0
 64146  1  0  0  0  0
 65147  1  0  0  0  0
 66148  1  0  0  0  0
 66149  1  0  0  0  0
 66150  1  0  0  0  0
 77151  1  0  0  0  0
 78152  1  0  0  0  0
M  CHG  1  66   1
M  END
$$$$
CHEMBL501665_1
 OpenBabel06162213483D

144152  0  0  1  0  0  0  0  0999 V2000
    2.0425    4.5460   -8.5454 C   0  0  0  0  0  0  0  0  0  0  0  0
    2.7034    5.4940   -9.2370 C   0  0  0  0  0  0  0  0  0  0  0  0
   -4.8014   -2.2485   -4.8177 C   0  0  0  0  0  0  0  0  0  0  0  0
   -4.8414   -2.6333   -2.3468 C   0  0  0  0  0  0  0  0  0  0  0  0
    0.5932   -0.0571   -5.3075 C   0  0  0  0  0  0  0  0  0  0  0  0
    0.1893   -0.6828   -3.9648 C   0  0  0  0  0  0  0  0  0  0  0  0
   -0.2987    1.9257   -0.3932 C   0  0  0  0  0  0  0  0  0  0  0  0
    2.0765   -1.6388    0.1021 C   0  0  0  0  0  0  0  0  0  0  0  0
   -0.0597    2.5807   -1.7566 C   0  0  0  0  0  0  0  0  0  0  0  0
    1.3104   -1.5681   -1.2234 C   0  0  0  0  0  0  0  0  0  0  0  0
   -0.0255    3.1415   -8.9696 C   0  0  0  0  0  0  0  0  0  0  0  0
   -0.4231    3.5350   -4.8762 C   0  0  0  0  0  0  0  0  0  0  0  0
    1.8718   -4.4881    3.8431 C   0  0  0  0  0  0  0  0  0  0  0  0
    1.6747    2.7096   -4.3199 C   0  0  0  0  0  0  0  0  0  0  0  0
    0.5632    4.4242   -8.3410 C   0  0  1  0  0  0  0  0  0  0  0  0
   -0.0879    1.2922   -5.5031 C   0  0  2  0  0  0  0  0  0  0  0  0
    0.4048    0.2753   -2.7566 C   0  0  2  0  0  0  0  0  0  0  0  0
    0.5530    0.6509   -0.2249 C   0  0  2  0  0  0  0  0  0  0  0  0
    0.3551    2.1138   -6.7319 C   0  0  1  0  0  0  0  0  0  0  0  0
    1.2115   -1.3324    1.3191 C   0  0  1  0  0  0  0  0  0  0  0  0
    0.8537   -5.6167    3.9456 C   0  0  1  0  0  0  0  0  0  0  0  0
   -2.7282   -8.6453    6.3080 C   0  0  1  0  0  0  0  0  0  0  0  0
   -0.5663   -5.0547    3.9016 C   0  0  1  0  0  0  0  0  0  0  0  0
   -1.6108   -9.6532    6.0384 C   0  0  1  0  0  0  0  0  0  0  0  0
   -4.8686   -2.6774    2.1433 C   0  0  2  0  0  0  0  0  0  0  0  0
   -2.7844   -7.5762    5.2166 C   0  0  2  0  0  0  0  0  0  0  0  0
   -4.3739   -3.8725    2.9329 C   0  0  2  0  0  0  0  0  0  0  0  0
   -0.7548   -4.1244    2.7045 C   0  0  2  0  0  0  0  0  0  0  0  0
   -0.2930   -8.9354    5.7370 C   0  0  1  0  0  0  0  0  0  0  0  0
   -4.3143   -2.9135    0.7403 C   0  0  2  0  0  0  0  0  0  0  0  0
   -1.3992   -6.9927    4.9380 C   0  0  1  0  0  0  0  0  0  0  0  0
   -3.0612   -4.2113    2.2445 C   0  0  1  0  0  0  0  0  0  0  0  0
    0.3654   -3.0824    2.6487 C   0  0  1  0  0  0  0  0  0  0  0  0
    0.1831    2.2594   -4.3063 C   0  0  2  0  0  0  0  0  0  0  0  0
    0.2476   -0.4176   -1.3337 C   0  0  2  0  0  0  0  0  0  0  0  0
   -0.3481    1.6510   -2.9610 C   0  0  2  0  0  0  0  0  0  0  0  0
    0.6014    0.1048    1.2590 C   0  0  0  0  0  0  0  0  0  0  0  0
   -0.5844    2.1373   -7.9442 C   0  0  2  0  0  0  0  0  0  0  0  0
    0.4963    3.5232   -6.1068 C   0  0  2  0  0  0  0  0  0  0  0  0
    4.2026    5.4735   -9.3474 C   0  0  0  0  0  0  0  0  0  0  0  0
    2.0288    6.6337   -9.9467 C   0  0  0  0  0  0  0  0  0  0  0  0
   -1.1498   -1.0588   -1.1744 C   0  0  0  0  0  0  0  0  0  0  0  0
   -1.8919    1.4958   -3.0548 C   0  0  0  0  0  0  0  0  0  0  0  0
    1.5558    1.0307    2.0688 C   0  0  0  0  0  0  0  0  0  0  0  0
   -0.7639    0.1594    1.9769 C   0  0  0  0  0  0  0  0  0  0  0  0
   -0.7377    0.7552   -8.5789 C   0  0  0  0  0  0  0  0  0  0  0  0
   -4.1492   -2.9704   -3.6430 C   0  0  0  0  0  0  0  0  0  0  0  0
    0.8165   -9.9061    5.3445 C   0  0  0  0  0  0  0  0  0  0  0  0
   -5.3344   -3.5238   -0.2108 C   0  0  0  0  0  0  0  0  0  0  0  0
   -6.0194   -2.5249   -5.0069 O   0  0  0  0  0  1  0  0  0  0  0  0
   -4.0396   -1.4702   -5.4578 O   0  0  0  0  0  0  0  0  0  0  0  0
   -5.4155   -1.5800   -2.1065 O   0  0  0  0  0  0  0  0  0  0  0  0
    1.6451   -3.7123    2.6635 O   0  0  0  0  0  0  0  0  0  0  0  0
    1.8044    3.5426   -5.4977 O   0  0  0  0  0  0  0  0  0  0  0  0
    0.2134    4.6066   -6.9683 O   0  0  0  0  0  0  0  0  0  0  0  0
   -0.4689   -8.0322    4.6441 O   0  0  0  0  0  0  0  0  0  0  0  0
   -3.2229   -3.8440    0.8675 O   0  0  0  0  0  0  0  0  0  0  0  0
    1.0677   -6.4979    2.8418 O   0  0  0  0  0  0  0  0  0  0  0  0
   -3.9725   -9.3464    6.3424 O   0  0  0  0  0  0  0  0  0  0  0  0
   -1.4740  -10.4800    7.1912 O   0  0  0  0  0  0  0  0  0  0  0  0
   -4.3062   -1.4819    2.6809 O   0  0  0  0  0  0  0  0  0  0  0  0
   -3.6607   -6.5372    5.6509 O   0  0  0  0  0  0  0  0  0  0  0  0
   -5.2925   -4.9458    2.7715 O   0  0  0  0  0  0  0  0  0  0  0  0
   -1.8988    2.5559   -7.5669 O   0  0  0  0  0  0  0  0  0  0  0  0
    1.9907   -9.1627    5.0736 O   0  0  0  0  0  0  0  0  0  0  0  0
   -4.7279   -3.6915   -1.4803 O   0  0  0  0  0  0  0  0  0  0  0  0
    0.2075   -2.3367    1.4423 O   0  0  0  0  0  0  0  0  0  0  0  0
   -1.5117   -6.1181    3.8251 O   0  0  0  0  0  0  0  0  0  0  0  0
   -2.0109   -3.4605    2.8425 O   0  0  0  0  0  0  0  0  0  0  0  0
    2.6289    3.7631   -8.0682 H   0  0  0  0  0  0  0  0  0  0  0  0
    1.6825    0.0401   -5.3493 H   0  0  0  0  0  0  0  0  0  0  0  0
    0.3166   -0.7372   -6.1199 H   0  0  0  0  0  0  0  0  0  0  0  0
   -0.8544   -0.9968   -4.0326 H   0  0  0  0  0  0  0  0  0  0  0  0
    0.7818   -1.5925   -3.8427 H   0  0  0  0  0  0  0  0  0  0  0  0
   -0.0285    2.6725    0.3610 H   0  0  0  0  0  0  0  0  0  0  0  0
   -1.3629    1.7259   -0.2388 H   0  0  0  0  0  0  0  0  0  0  0  0
    2.5714   -2.6124    0.2206 H   0  0  0  0  0  0  0  0  0  0  0  0
    2.9104   -0.9208    0.0665 H   0  0  0  0  0  0  0  0  0  0  0  0
   -0.6619    3.4924   -1.8285 H   0  0  0  0  0  0  0  0  0  0  0  0
    0.9832    2.9024   -1.7564 H   0  0  0  0  0  0  0  0  0  0  0  0
    2.0478   -1.4597   -2.0352 H   0  0  0  0  0  0  0  0  0  0  0  0
    0.8292   -2.5449   -1.3814 H   0  0  0  0  0  0  0  0  0  0  0  0
   -0.8380    3.4422   -9.6471 H   0  0  0  0  0  0  0  0  0  0  0  0
    0.7285    2.6616   -9.6082 H   0  0  0  0  0  0  0  0  0  0  0  0
   -1.4829    3.4823   -5.1403 H   0  0  0  0  0  0  0  0  0  0  0  0
   -0.2636    4.4139   -4.2412 H   0  0  0  0  0  0  0  0  0  0  0  0
    1.8358   -3.8326    4.7207 H   0  0  0  0  0  0  0  0  0  0  0  0
    2.8844   -4.8968    3.7634 H   0  0  0  0  0  0  0  0  0  0  0  0
    1.9533    3.3453   -3.4775 H   0  0  0  0  0  0  0  0  0  0  0  0
    2.3956    1.8918   -4.3873 H   0  0  0  0  0  0  0  0  0  0  0  0
    0.1245    5.2793   -8.8791 H   0  0  0  0  0  0  0  0  0  0  0  0
   -1.1648    1.0986   -5.5825 H   0  0  0  0  0  0  0  0  0  0  0  0
    1.4789    0.5253   -2.8087 H   0  0  0  0  0  0  0  0  0  0  0  0
    1.5877    0.9749   -0.4090 H   0  0  0  0  0  0  0  0  0  0  0  0
    1.3392    1.7571   -7.0672 H   0  0  0  0  0  0  0  0  0  0  0  0
    1.8567   -1.4025    2.2101 H   0  0  0  0  0  0  0  0  0  0  0  0
    1.0116   -6.2003    4.8588 H   0  0  0  0  0  0  0  0  0  0  0  0
   -2.6029   -8.1881    7.2976 H   0  0  0  0  0  0  0  0  0  0  0  0
   -0.7768   -4.5067    4.8282 H   0  0  0  0  0  0  0  0  0  0  0  0
   -1.9059  -10.2956    5.1988 H   0  0  0  0  0  0  0  0  0  0  0  0
   -5.9652   -2.5693    2.1536 H   0  0  0  0  0  0  0  0  0  0  0  0
   -3.2180   -7.9992    4.3016 H   0  0  0  0  0  0  0  0  0  0  0  0
   -4.2542   -3.6612    4.0005 H   0  0  0  0  0  0  0  0  0  0  0  0
   -0.7998   -4.7044    1.7746 H   0  0  0  0  0  0  0  0  0  0  0  0
    0.0505   -8.3764    6.6175 H   0  0  0  0  0  0  0  0  0  0  0  0
   -3.9150   -1.9930    0.2993 H   0  0  0  0  0  0  0  0  0  0  0  0
   -1.0464   -6.3972    5.7895 H   0  0  0  0  0  0  0  0  0  0  0  0
   -2.8166   -5.2761    2.3031 H   0  0  0  0  0  0  0  0  0  0  0  0
    0.2842   -2.3745    3.4824 H   0  0  0  0  0  0  0  0  0  0  0  0
    4.5102    4.8968  -10.2259 H   0  0  0  0  0  0  0  0  0  0  0  0
    4.5894    6.4929   -9.4476 H   0  0  0  0  0  0  0  0  0  0  0  0
    4.6784    5.0222   -8.4704 H   0  0  0  0  0  0  0  0  0  0  0  0
    1.9302    7.4915   -9.2733 H   0  0  0  0  0  0  0  0  0  0  0  0
    2.6217    6.9415  -10.8142 H   0  0  0  0  0  0  0  0  0  0  0  0
    1.0272    6.3801  -10.3056 H   0  0  0  0  0  0  0  0  0  0  0  0
   -1.9002   -0.2826   -1.2472 H   0  0  0  0  0  0  0  0  0  0  0  0
   -1.2046   -1.5399   -0.2068 H   0  0  0  0  0  0  0  0  0  0  0  0
   -1.2908   -1.7880   -1.9614 H   0  0  0  0  0  0  0  0  0  0  0  0
   -2.1210    0.8499   -3.8895 H   0  0  0  0  0  0  0  0  0  0  0  0
   -2.3257    2.4734   -3.2042 H   0  0  0  0  0  0  0  0  0  0  0  0
   -2.2489    1.0615   -2.1326 H   0  0  0  0  0  0  0  0  0  0  0  0
    1.5994    0.6703    3.0856 H   0  0  0  0  0  0  0  0  0  0  0  0
    1.1617    2.0355    2.0406 H   0  0  0  0  0  0  0  0  0  0  0  0
    2.5338    0.9952    1.6128 H   0  0  0  0  0  0  0  0  0  0  0  0
   -0.6515   -0.2290    2.9826 H   0  0  0  0  0  0  0  0  0  0  0  0
   -1.4778   -0.4434    1.4274 H   0  0  0  0  0  0  0  0  0  0  0  0
   -1.1033    1.1881    2.0155 H   0  0  0  0  0  0  0  0  0  0  0  0
   -1.1329    0.0561   -7.8447 H   0  0  0  0  0  0  0  0  0  0  0  0
    0.2309    0.4012   -8.9256 H   0  0  0  0  0  0  0  0  0  0  0  0
   -1.4215    0.8130   -9.4232 H   0  0  0  0  0  0  0  0  0  0  0  0
   -4.2030   -4.0528   -3.8038 H   0  0  0  0  0  0  0  0  0  0  0  0
   -3.0969   -2.6740   -3.5715 H   0  0  0  0  0  0  0  0  0  0  0  0
    0.5271  -10.4605    4.4518 H   0  0  0  0  0  0  0  0  0  0  0  0
    1.0101  -10.6004    6.1622 H   0  0  0  0  0  0  0  0  0  0  0  0
   -6.1969   -2.8630   -0.3104 H   0  0  0  0  0  0  0  0  0  0  0  0
   -5.6603   -4.4962    0.1617 H   0  0  0  0  0  0  0  0  0  0  0  0
    1.9759   -6.8244    2.9256 H   0  0  0  0  0  0  0  0  0  0  0  0
   -4.0742   -9.7642    5.4743 H   0  0  0  0  0  0  0  0  0  0  0  0
   -1.2522   -9.8908    7.9288 H   0  0  0  0  0  0  0  0  0  0  0  0
   -4.6504   -0.7505    2.1455 H   0  0  0  0  0  0  0  0  0  0  0  0
   -3.2845   -6.1863    6.4723 H   0  0  0  0  0  0  0  0  0  0  0  0
   -4.9456   -5.6906    3.2883 H   0  0  0  0  0  0  0  0  0  0  0  0
   -2.4234    2.5617   -8.3802 H   0  0  0  0  0  0  0  0  0  0  0  0
    2.6818   -9.8006    4.8264 H   0  0  0  0  0  0  0  0  0  0  0  0
  1  2  2  0  0  0  0
  1 15  1  0  0  0  0
  1 70  1  0  0  0  0
  2 40  1  0  0  0  0
  2 41  1  0  0  0  0
  3 47  1  0  0  0  0
  3 50  1  0  0  0  0
  3 51  2  0  0  0  0
  4 47  1  0  0  0  0
  4 52  2  0  0  0  0
  4 66  1  0  0  0  0
  5  6  1  0  0  0  0
  5 16  1  0  0  0  0
  5 71  1  0  0  0  0
  5 72  1  0  0  0  0
  6 17  1  0  0  0  0
  6 73  1  0  0  0  0
  6 74  1  0  0  0  0
  7  9  1  0  0  0  0
  7 18  1  0  0  0  0
  7 75  1  0  0  0  0
  7 76  1  0  0  0  0
  8 10  1  0  0  0  0
  8 20  1  0  0  0  0
  8 77  1  0  0  0  0
  8 78  1  0  0  0  0
  9 36  1  0  0  0  0
  9 79  1  0  0  0  0
  9 80  1  0  0  0  0
 10 35  1  0  0  0  0
 10 81  1  0  0  0  0
 10 82  1  0  0  0  0
 11 15  1  0  0  0  0
 11 38  1  0  0  0  0
 11 83  1  0  0  0  0
 11 84  1  0  0  0  0
 12 39  1  0  0  0  0
 12 85  1  0  0  0  0
 12 86  1  0  0  0  0
 13 21  1  0  0  0  0
 13 53  1  0  0  0  0
 13 87  1  0  0  0  0
 13 88  1  0  0  0  0
 14 34  1  0  0  0  0
 14 54  1  0  0  0  0
 14 89  1  0  0  0  0
 14 90  1  0  0  0  0
 15 55  1  0  0  0  0
 15 91  1  6  0  0  0
 16 19  1  0  0  0  0
 16 34  1  0  0  0  0
 16 92  1  6  0  0  0
 17 35  1  0  0  0  0
 17 36  1  0  0  0  0
 17 93  1  6  0  0  0
 18 35  1  0  0  0  0
 18 37  1  0  0  0  0
 18 94  1  6  0  0  0
 19 38  1  0  0  0  0
 19 39  1  0  0  0  0
 19 95  1  6  0  0  0
 20 37  1  0  0  0  0
 20 67  1  0  0  0  0
 20 96  1  1  0  0  0
 21 23  1  0  0  0  0
 21 58  1  0  0  0  0
 21 97  1  1  0  0  0
 22 24  1  0  0  0  0
 22 26  1  0  0  0  0
 22 59  1  0  0  0  0
 22 98  1  1  0  0  0
 23 28  1  0  0  0  0
 23 68  1  0  0  0  0
 23 99  1  1  0  0  0
 24 29  1  0  0  0  0
 24 60  1  0  0  0  0
 24100  1  6  0  0  0
 25 27  1  0  0  0  0
 25 30  1  0  0  0  0
 25 61  1  0  0  0  0
 25101  1  6  0  0  0
 26 31  1  0  0  0  0
 26 62  1  0  0  0  0
 26102  1  6  0  0  0
 27 32  1  0  0  0  0
 27 63  1  0  0  0  0
 27103  1  1  0  0  0
 28 33  1  0  0  0  0
 28 69  1  0  0  0  0
 28104  1  6  0  0  0
 29 48  1  0  0  0  0
 29 56  1  0  0  0  0
 29105  1  1  0  0  0
 30 49  1  0  0  0  0
 30 57  1  0  0  0  0
 30106  1  6  0  0  0
 31 56  1  0  0  0  0
 31 68  1  0  0  0  0
 31107  1  1  0  0  0
 32 57  1  0  0  0  0
 32 69  1  0  0  0  0
 32108  1  1  0  0  0
 33 53  1  0  0  0  0
 33 67  1  0  0  0  0
 33109  1  1  0  0  0
 34 12  1  6  0  0  0
 34 36  1  0  0  0  0
 35 42  1  1  0  0  0
 36 43  1  6  0  0  0
 37 44  1  0  0  0  0
 37 45  1  0  0  0  0
 38 46  1  0  0  0  0
 38 64  1  1  0  0  0
 39 54  1  1  0  0  0
 39 55  1  0  0  0  0
 40110  1  0  0  0  0
 40111  1  0  0  0  0
 40112  1  0  0  0  0
 41113  1  0  0  0  0
 41114  1  0  0  0  0
 41115  1  0  0  0  0
 42116  1  0  0  0  0
 42117  1  0  0  0  0
 42118  1  0  0  0  0
 43119  1  0  0  0  0
 43120  1  0  0  0  0
 43121  1  0  0  0  0
 44122  1  0  0  0  0
 44123  1  0  0  0  0
 44124  1  0  0  0  0
 45125  1  0  0  0  0
 45126  1  0  0  0  0
 45127  1  0  0  0  0
 46128  1  0  0  0  0
 46129  1  0  0  0  0
 46130  1  0  0  0  0
 47131  1  0  0  0  0
 47132  1  0  0  0  0
 48 65  1  0  0  0  0
 48133  1  0  0  0  0
 48134  1  0  0  0  0
 49 66  1  0  0  0  0
 49135  1  0  0  0  0
 49136  1  0  0  0  0
 58137  1  0  0  0  0
 59138  1  0  0  0  0
 60139  1  0  0  0  0
 61140  1  0  0  0  0
 62141  1  0  0  0  0
 63142  1  0  0  0  0
 64143  1  0  0  0  0
 65144  1  0  0  0  0
M  END
$$$$
CHEMBL501671_1
 OpenBabel06162213483D

 81 85  0  0  1  0  0  0  0  0999 V2000
   -5.3883    5.7884    1.9918 C   0  0  0  0  0  0  0  0  0  0  0  0
   -5.7041    6.3928    0.7837 C   0  0  0  0  0  0  0  0  0  0  0  0
   -1.1036    9.6463   -2.8153 C   0  0  0  0  0  0  0  0  0  0  0  0
   -4.5033    4.7137    2.0147 C   0  0  0  0  0  0  0  0  0  0  0  0
   -5.1286    5.9242   -0.3983 C   0  0  0  0  0  0  0  0  0  0  0  0
   -1.6849    8.5853   -2.1212 C   0  0  0  0  0  0  0  0  0  0  0  0
   -0.6105   -1.1656    2.0233 C   0  0  0  0  0  0  0  0  0  0  0  0
    0.0073   -2.4193    2.0353 C   0  0  0  0  0  0  0  0  0  0  0  0
   -0.2172    9.3927   -3.8621 C   0  0  0  0  0  0  0  0  0  0  0  0
   -0.4933    7.0170   -3.5204 C   0  0  0  0  0  0  0  0  0  0  0  0
    0.8432   -2.0376   -0.1954 C   0  0  0  0  0  0  0  0  0  0  0  0
   -3.9211    4.2393    0.8256 C   0  0  0  0  0  0  0  0  0  0  0  0
   -4.2160    4.8458   -0.4051 C   0  0  0  0  0  0  0  0  0  0  0  0
   -1.3797    7.2706   -2.4737 C   0  0  0  0  0  0  0  0  0  0  0  0
   -0.5167   -0.3301    0.9024 C   0  0  0  0  0  0  0  0  0  0  0  0
    0.7291   -2.8557    0.9252 C   0  0  0  0  0  0  0  0  0  0  0  0
    0.0880    8.0781   -4.2146 C   0  0  0  0  0  0  0  0  0  0  0  0
    0.2227   -0.7880   -0.1895 C   0  0  0  0  0  0  0  0  0  0  0  0
   -3.0113    3.0792    0.9280 C   0  0  0  0  0  0  0  0  0  0  0  0
   -2.3007    2.6738   -0.3052 C   0  0  0  0  0  0  0  0  0  0  0  0
   -1.4575    1.6332   -0.2429 C   0  0  0  0  0  0  0  0  0  0  0  0
   -2.4876    3.3638   -1.6069 C   0  0  0  0  0  0  0  0  0  0  0  0
   -3.6343    4.3662   -1.7298 C   0  0  1  0  0  0  0  0  0  0  0  0
   -7.5763    2.5890   -2.8485 C   0  0  0  0  0  0  0  0  0  0  0  0
   -6.8282    0.4353   -1.8267 C   0  0  0  0  0  0  0  0  0  0  0  0
   -5.8352    1.2111   -3.9939 C   0  0  0  0  0  0  0  0  0  0  0  0
    1.2200    6.4635   -5.5440 C   0  0  0  0  0  0  0  0  0  0  0  0
    3.3202   -3.8969    2.7632 C   0  0  0  0  0  0  0  0  0  0  0  0
   -2.0051    6.1287   -1.7260 C   0  0  0  0  0  0  0  0  0  0  0  0
   -4.7348    3.6898   -2.5685 C   0  0  0  0  0  0  0  0  0  0  0  0
   -5.2855    2.4651   -1.8428 C   0  0  0  0  0  0  0  0  0  0  0  0
   -6.3630    1.6655   -2.6231 C   0  0  0  0  0  0  0  0  0  0  0  0
   -1.1893    0.8967    0.8827 N   0  0  0  0  0  0  0  0  0  0  0  0
   -0.8954    1.3104   -1.5134 N   0  0  0  0  0  0  0  0  0  0  0  0
    1.3599   -4.1361    0.9431 N   0  0  0  0  0  0  0  0  0  0  0  0
   -3.0587    5.4911   -2.4915 N   0  0  0  0  0  0  0  0  0  0  0  0
   -2.8600    2.4964    1.9956 O   0  0  0  0  0  0  0  0  0  0  0  0
   -1.7636    3.0951   -2.5681 O   0  0  0  0  0  0  0  0  0  0  0  0
    0.3353   -0.5369   -2.7611 O   0  0  0  0  0  0  0  0  0  0  0  0
    1.6485    1.0445   -1.2902 O   0  0  0  0  0  0  0  0  0  0  0  0
    3.5040   -5.5592    0.7707 O   0  0  0  0  0  0  0  0  0  0  0  0
    3.6715   -3.0906    0.2986 O   0  0  0  0  0  0  0  0  0  0  0  0
    0.9526    7.8307   -5.2364 O   0  0  0  0  0  0  0  0  0  0  0  0
    0.4480    0.2800   -1.5679 S   0  0  0  0  0  0  0  0  0  0  0  0
    3.0792   -4.1955    1.0262 S   0  0  0  0  0  0  0  0  0  0  0  0
   -5.8328    6.1479    2.9150 H   0  0  0  0  0  0  0  0  0  0  0  0
   -6.4000    7.2261    0.7559 H   0  0  0  0  0  0  0  0  0  0  0  0
   -1.3416   10.6697   -2.5411 H   0  0  0  0  0  0  0  0  0  0  0  0
   -4.2786    4.2555    2.9747 H   0  0  0  0  0  0  0  0  0  0  0  0
   -5.4131    6.4145   -1.3267 H   0  0  0  0  0  0  0  0  0  0  0  0
   -2.3740    8.7927   -1.3068 H   0  0  0  0  0  0  0  0  0  0  0  0
   -1.1790   -0.8507    2.8957 H   0  0  0  0  0  0  0  0  0  0  0  0
   -0.0853   -3.0491    2.9168 H   0  0  0  0  0  0  0  0  0  0  0  0
    0.2323   10.2235   -4.3988 H   0  0  0  0  0  0  0  0  0  0  0  0
   -0.2533    5.9931   -3.7972 H   0  0  0  0  0  0  0  0  0  0  0  0
    1.4248   -2.3661   -1.0527 H   0  0  0  0  0  0  0  0  0  0  0  0
   -7.2951    3.4845   -3.4144 H   0  0  0  0  0  0  0  0  0  0  0  0
   -8.0044    2.9196   -1.8954 H   0  0  0  0  0  0  0  0  0  0  0  0
   -8.3654    2.0759   -3.4096 H   0  0  0  0  0  0  0  0  0  0  0  0
   -6.0045   -0.2602   -1.6356 H   0  0  0  0  0  0  0  0  0  0  0  0
   -7.2543    0.7277   -0.8606 H   0  0  0  0  0  0  0  0  0  0  0  0
   -7.5981   -0.1202   -2.3747 H   0  0  0  0  0  0  0  0  0  0  0  0
   -4.9687    0.5498   -3.8841 H   0  0  0  0  0  0  0  0  0  0  0  0
   -6.5991    0.6746   -4.5658 H   0  0  0  0  0  0  0  0  0  0  0  0
   -5.5231    2.0696   -4.5999 H   0  0  0  0  0  0  0  0  0  0  0  0
    1.9244    6.4077   -6.3775 H   0  0  0  0  0  0  0  0  0  0  0  0
    0.2869    5.9590   -5.8072 H   0  0  0  0  0  0  0  0  0  0  0  0
    1.6580    5.9810   -4.6670 H   0  0  0  0  0  0  0  0  0  0  0  0
    4.3918   -3.9065    2.9689 H   0  0  0  0  0  0  0  0  0  0  0  0
    2.8926   -2.9234    3.0078 H   0  0  0  0  0  0  0  0  0  0  0  0
    2.8165   -4.6873    3.3216 H   0  0  0  0  0  0  0  0  0  0  0  0
   -1.2549    5.3675   -1.4858 H   0  0  0  0  0  0  0  0  0  0  0  0
   -2.4380    6.4688   -0.7794 H   0  0  0  0  0  0  0  0  0  0  0  0
   -5.5153    4.4286   -2.7451 H   0  0  0  0  0  0  0  0  0  0  0  0
   -4.2974    3.4171   -3.5279 H   0  0  0  0  0  0  0  0  0  0  0  0
   -5.7078    2.7849   -0.8804 H   0  0  0  0  0  0  0  0  0  0  0  0
   -4.4510    1.7934   -1.6000 H   0  0  0  0  0  0  0  0  0  0  0  0
   -1.6465    1.1890    1.7391 H   0  0  0  0  0  0  0  0  0  0  0  0
   -1.4960    1.4396   -2.3374 H   0  0  0  0  0  0  0  0  0  0  0  0
    0.8770   -4.8391    1.5270 H   0  0  0  0  0  0  0  0  0  0  0  0
   -2.6855    5.1269   -3.3608 H   0  0  0  0  0  0  0  0  0  0  0  0
  1  2  2  0  0  0  0
  1  4  1  0  0  0  0
  1 46  1  0  0  0  0
  2  5  1  0  0  0  0
  2 47  1  0  0  0  0
  3  6  2  0  0  0  0
  3  9  1  0  0  0  0
  3 48  1  0  0  0  0
  4 12  2  0  0  0  0
  4 49  1  0  0  0  0
  5 13  2  0  0  0  0
  5 50  1  0  0  0  0
  6 14  1  0  0  0  0
  6 51  1  0  0  0  0
  7  8  2  0  0  0  0
  7 15  1  0  0  0  0
  7 52  1  0  0  0  0
  8 16  1  0  0  0  0
  8 53  1  0  0  0  0
  9 17  2  0  0  0  0
  9 54  1  0  0  0  0
 10 14  2  0  0  0  0
 10 17  1  0  0  0  0
 10 55  1  0  0  0  0
 11 16  2  0  0  0  0
 11 18  1  0  0  0  0
 11 56  1  0  0  0  0
 12 13  1  0  0  0  0
 12 19  1  0  0  0  0
 13 23  1  0  0  0  0
 14 29  1  0  0  0  0
 15 18  2  0  0  0  0
 15 33  1  0  0  0  0
 16 35  1  0  0  0  0
 17 43  1  0  0  0  0
 18 44  1  0  0  0  0
 19 20  1  0  0  0  0
 19 37  2  0  0  0  0
 20 21  2  0  0  0  0
 20 22  1  0  0  0  0
 21 33  1  0  0  0  0
 21 34  1  0  0  0  0
 22 23  1  0  0  0  0
 22 38  2  0  0  0  0
 23 30  1  6  0  0  0
 23 36  1  0  0  0  0
 24 32  1  0  0  0  0
 24 57  1  0  0  0  0
 24 58  1  0  0  0  0
 24 59  1  0  0  0  0
 25 32  1  0  0  0  0
 25 60  1  0  0  0  0
 25 61  1  0  0  0  0
 25 62  1  0  0  0  0
 26 32  1  0  0  0  0
 26 63  1  0  0  0  0
 26 64  1  0  0  0  0
 26 65  1  0  0  0  0
 27 43  1  0  0  0  0
 27 66  1  0  0  0  0
 27 67  1  0  0  0  0
 27 68  1  0  0  0  0
 28 45  1  0  0  0  0
 28 69  1  0  0  0  0
 28 70  1  0  0  0  0
 28 71  1  0  0  0  0
 29 36  1  0  0  0  0
 29 72  1  0  0  0  0
 29 73  1  0  0  0  0
 30 31  1  0  0  0  0
 30 74  1  0  0  0  0
 30 75  1  0  0  0  0
 31 32  1  0  0  0  0
 31 76  1  0  0  0  0
 31 77  1  0  0  0  0
 33 78  1  0  0  0  0
 34 44  1  0  0  0  0
 34 79  1  0  0  0  0
 35 45  1  0  0  0  0
 35 80  1  0  0  0  0
 36 81  1  0  0  0  0
 39 44  2  0  0  0  0
 40 44  2  0  0  0  0
 41 45  2  0  0  0  0
 42 45  2  0  0  0  0
M  END
$$$$
CHEMBL403325_1
 OpenBabel06162213483D

 66 68  0  0  1  0  0  0  0  0999 V2000
    3.8144    3.1005   -4.4902 C   0  0  0  0  0  0  0  0  0  0  0  0
    2.6460    2.5842   -3.9299 C   0  0  0  0  0  0  0  0  0  0  0  0
    4.4069    4.2382   -3.9423 C   0  0  0  0  0  0  0  0  0  0  0  0
    4.5227   -1.8876    1.2448 C   0  0  0  0  0  0  0  0  0  0  0  0
    3.4012   -1.3419    1.8691 C   0  0  0  0  0  0  0  0  0  0  0  0
    2.0701    3.2056   -2.8219 C   0  0  0  0  0  0  0  0  0  0  0  0
    3.8310    4.8597   -2.8343 C   0  0  0  0  0  0  0  0  0  0  0  0
    4.7126   -1.7121   -0.1259 C   0  0  0  0  0  0  0  0  0  0  0  0
    2.6591   -0.4451   -0.2480 C   0  0  0  0  0  0  0  0  0  0  0  0
    2.4693   -0.6206    1.1227 C   0  0  0  0  0  0  0  0  0  0  0  0
    2.6626    4.3434   -2.2741 C   0  0  0  0  0  0  0  0  0  0  0  0
    3.7807   -0.9908   -0.8723 C   0  0  0  0  0  0  0  0  0  0  0  0
   -0.5752    5.3250    1.6075 C   0  0  0  0  0  0  0  0  0  0  0  0
   -0.3400    8.0974   -0.5512 C   0  0  0  0  0  0  0  0  0  0  0  0
    0.3973    0.7136    0.7339 C   0  0  0  0  0  0  0  0  0  0  0  0
   -0.7794    1.4976    1.3081 C   0  0  0  0  0  0  0  0  0  0  0  0
    0.4454    1.7500    3.4755 C   0  0  0  0  0  0  0  0  0  0  0  0
    1.6635    0.9914    2.9200 C   0  0  1  0  0  0  0  0  0  0  0  0
    1.2612   -0.0333    1.7952 C   0  0  2  0  0  0  0  0  0  0  0  0
    2.7494    1.9924    2.4803 C   0  0  0  0  0  0  0  0  0  0  0  0
    0.4756   -1.2157    2.3895 C   0  0  0  0  0  0  0  0  0  0  0  0
    2.0404    5.0159   -1.0764 C   0  0  0  0  0  0  0  0  0  0  0  0
   -1.7472    4.4043    1.9098 C   0  0  0  0  0  0  0  0  0  0  0  0
    1.0171    6.1028   -1.4351 C   0  0  0  0  0  0  0  0  0  0  0  0
   -1.4185    3.2989    2.9006 C   0  0  0  0  0  0  0  0  0  0  0  0
    0.3275    6.7509   -0.2272 C   0  0  2  0  0  0  0  0  0  0  0  0
   -0.6503    5.8385    0.3208 N   0  0  0  0  0  0  0  0  0  0  0  0
   -0.2956    2.4511    2.3660 N   0  3  2  0  0  0  0  0  0  0  0  0
   -1.2020    8.0485   -1.4751 O   0  0  0  0  0  1  0  0  0  0  0  0
    0.3101    5.5760    2.4206 O   0  0  0  0  0  0  0  0  0  0  0  0
    0.0544    9.0878    0.1259 O   0  0  0  0  0  0  0  0  0  0  0  0
    3.9663   -0.8190   -2.2098 O   0  0  0  0  0  0  0  0  0  0  0  0
    4.2634    2.6157   -5.3521 H   0  0  0  0  0  0  0  0  0  0  0  0
    2.1851    1.6976   -4.3557 H   0  0  0  0  0  0  0  0  0  0  0  0
    5.3172    4.6399   -4.3776 H   0  0  0  0  0  0  0  0  0  0  0  0
    5.2484   -2.4487    1.8260 H   0  0  0  0  0  0  0  0  0  0  0  0
    3.2615   -1.4843    2.9375 H   0  0  0  0  0  0  0  0  0  0  0  0
    1.1595    2.7964   -2.3921 H   0  0  0  0  0  0  0  0  0  0  0  0
    4.2996    5.7458   -2.4142 H   0  0  0  0  0  0  0  0  0  0  0  0
    5.5882   -2.1397   -0.6063 H   0  0  0  0  0  0  0  0  0  0  0  0
    1.9341    0.1165   -0.8325 H   0  0  0  0  0  0  0  0  0  0  0  0
    0.0118   -0.0063   -0.0007 H   0  0  0  0  0  0  0  0  0  0  0  0
    1.0292    1.4034    0.1578 H   0  0  0  0  0  0  0  0  0  0  0  0
   -1.2577    2.0944    0.5240 H   0  0  0  0  0  0  0  0  0  0  0  0
   -1.5279    0.8413    1.7643 H   0  0  0  0  0  0  0  0  0  0  0  0
   -0.2631    1.0794    3.9731 H   0  0  0  0  0  0  0  0  0  0  0  0
    0.7567    2.5167    4.1943 H   0  0  0  0  0  0  0  0  0  0  0  0
    2.0987    0.4242    3.7552 H   0  0  0  0  0  0  0  0  0  0  0  0
    2.3737    2.5838    1.6529 H   0  0  0  0  0  0  0  0  0  0  0  0
    3.6322    1.4452    2.1693 H   0  0  0  0  0  0  0  0  0  0  0  0
    2.9938    2.6408    3.3142 H   0  0  0  0  0  0  0  0  0  0  0  0
   -0.4115   -0.8406    2.8889 H   0  0  0  0  0  0  0  0  0  0  0  0
    1.1032   -1.7392    3.1030 H   0  0  0  0  0  0  0  0  0  0  0  0
    0.1878   -1.8912    1.5908 H   0  0  0  0  0  0  0  0  0  0  0  0
    1.5837    4.2669   -0.4184 H   0  0  0  0  0  0  0  0  0  0  0  0
    2.8462    5.4694   -0.4842 H   0  0  0  0  0  0  0  0  0  0  0  0
   -2.1170    3.9792    0.9690 H   0  0  0  0  0  0  0  0  0  0  0  0
   -2.5474    5.0267    2.3286 H   0  0  0  0  0  0  0  0  0  0  0  0
    1.5276    6.8738   -2.0275 H   0  0  0  0  0  0  0  0  0  0  0  0
    0.2520    5.6791   -2.0995 H   0  0  0  0  0  0  0  0  0  0  0  0
   -1.0930    3.6844    3.8713 H   0  0  0  0  0  0  0  0  0  0  0  0
   -2.2718    2.6291    3.0406 H   0  0  0  0  0  0  0  0  0  0  0  0
    1.0613    6.9036    0.5728 H   0  0  0  0  0  0  0  0  0  0  0  0
   -1.4237    5.5647   -0.2781 H   0  0  0  0  0  0  0  0  0  0  0  0
    0.3597    3.1024    1.9141 H   0  0  0  0  0  0  0  0  0  0  0  0
    3.2383   -0.2994   -2.5863 H   0  0  0  0  0  0  0  0  0  0  0  0
  1  2  2  0  0  0  0
  1  3  1  0  0  0  0
  1 33  1  0  0  0  0
  2  6  1  0  0  0  0
  2 34  1  0  0  0  0
  3  7  2  0  0  0  0
  3 35  1  0  0  0  0
  4  5  2  0  0  0  0
  4  8  1  0  0  0  0
  4 36  1  0  0  0  0
  5 10  1  0  0  0  0
  5 37  1  0  0  0  0
  6 11  2  0  0  0  0
  6 38  1  0  0  0  0
  7 11  1  0  0  0  0
  7 39  1  0  0  0  0
  8 12  2  0  0  0  0
  8 40  1  0  0  0  0
  9 10  2  0  0  0  0
  9 12  1  0  0  0  0
  9 41  1  0  0  0  0
 10 19  1  0  0  0  0
 11 22  1  0  0  0  0
 12 32  1  0  0  0  0
 13 23  1  0  0  0  0
 13 27  1  0  0  0  0
 13 30  2  0  0  0  0
 14 26  1  0  0  0  0
 14 29  1  0  0  0  0
 14 31  2  0  0  0  0
 15 16  1  0  0  0  0
 15 19  1  0  0  0  0
 15 42  1  0  0  0  0
 15 43  1  0  0  0  0
 16 28  1  0  0  0  0
 16 44  1  0  0  0  0
 16 45  1  0  0  0  0
 17 18  1  0  0  0  0
 17 28  1  0  0  0  0
 17 46  1  0  0  0  0
 17 47  1  0  0  0  0
 18 19  1  0  0  0  0
 18 20  1  0  0  0  0
 18 48  1  1  0  0  0
 19 21  1  1  0  0  0
 20 49  1  0  0  0  0
 20 50  1  0  0  0  0
 20 51  1  0  0  0  0
 21 52  1  0  0  0  0
 21 53  1  0  0  0  0
 21 54  1  0  0  0  0
 22 24  1  0  0  0  0
 22 55  1  0  0  0  0
 22 56  1  0  0  0  0
 23 25  1  0  0  0  0
 23 57  1  0  0  0  0
 23 58  1  0  0  0  0
 24 26  1  0  0  0  0
 24 59  1  0  0  0  0
 24 60  1  0  0  0  0
 25 28  1  0  0  0  0
 25 61  1  0  0  0  0
 25 62  1  0  0  0  0
 26 27  1  0  0  0  0
 26 63  1  1  0  0  0
 27 64  1  0  0  0  0
 28 65  1  6  0  0  0
 32 66  1  0  0  0  0
M  CHG  1  28   1
M  END
$$$$
