@<TRIPOS>MOLECULE
CHEMBL153534_1
   29    30     0     0     0
SMALL
AM1BCC_CHARGES

@<TRIPOS>ATOM
      1 C1          0.2891    0.0196    1.0414 C.2       1 <0>        -0.1455
      2 C2          1.4575    0.3171    2.9431 C.2       1 <0>        -0.1306
      3 C3          3.8231    1.4410    1.3000 C.2       1 <0>        -0.2732
      4 C4          1.5204    0.4727    1.5759 C.2       1 <0>        -0.2059
      5 C5          2.6187    0.9960    0.7965 C.2       1 <0>         0.4890
      6 C6         -0.4888   -0.3990    2.0983 C.2       1 <0>        -0.1268
      7 C7          3.5751    1.5669   -1.0927 C.2       1 <0>         0.6575
      8 C8          2.9375    1.5400   -3.5426 C.2       1 <0>         0.7654
      9 C9         -1.8561   -0.9586    2.1050 C.3       1 <0>        -0.0276
     10 C10        -0.2164   -0.5238    4.5891 C.3       1 <0>         0.0217
     11 N1          2.4746    1.0678   -0.5753 N.2       1 <0>        -0.6958
     12 N2          1.7346    1.0442   -3.4994 N.2       1 <0>        -0.8519
     13 N3          0.2315   -0.2133    3.2493 N.pl3     1 <0>        -0.0585
     14 N4          3.5121    1.9003   -4.7393 N.pl3     1 <0>        -0.8851
     15 N5          3.7712    1.7738   -2.4221 N.pl3     1 <0>        -0.8218
     16 S1          4.8241    1.9715    0.0124 S.3       1 <0>        -0.1728
     17 H1         -0.0040   -0.0017    0.0001 H         1 <0>         0.1675
     18 H2          2.1772    0.5377    3.7206 H         1 <0>         0.1658
     19 H3          4.1586    1.4808    2.3271 H         1 <0>         0.1785
     20 H4         -1.8350   -2.0567    2.0166 H         1 <0>         0.0453
     21 H5         -2.4006   -0.7063    3.0304 H         1 <0>         0.0379
     22 H6         -2.4665   -0.5660    1.2744 H         1 <0>         0.0577
     23 H7         -0.7128    0.3626    4.9926 H         1 <0>         0.0443
     24 H8         -0.9103   -1.3682    4.5545 H         1 <0>         0.0571
     25 H9          0.6460   -0.7939    5.2049 H         1 <0>         0.0533
     26 H10         1.4952    0.8438   -2.5222 H         1 <0>         0.4418
     27 H11         3.0178    1.7942   -5.6184 H         1 <0>         0.4035
     28 H12         4.4477    2.2899   -4.7789 H         1 <0>         0.3791
     29 H13         4.6867    2.1829   -2.6916 H         1 <0>         0.4300
@<TRIPOS>BOND
     1    1    4 1
     2    1    6 2
     3    2    4 2
     4    2   13 1
     5    3    5 2
     6    3   16 1
     7    4    5 1
     8    5   11 1
     9    6    9 1
    10    6   13 1
    11    7   11 2
    12    7   15 1
    13    7   16 1
    14    8   12 2
    15    8   14 1
    16    8   15 1
    17   10   13 1
    18    1   17 1
    19    2   18 1
    20    3   19 1
    21    9   20 1
    22    9   21 1
    23    9   22 1
    24   10   23 1
    25   10   24 1
    26   10   25 1
    27   12   26 1
    28   14   27 1
    29   14   28 1
    30   15   29 1
@<TRIPOS>MOLECULE
CHEMBL405398_1
   48    51     0     0     0
SMALL
AM1BCC_CHARGES

@<TRIPOS>ATOM
      1 C1          2.8660   -2.8833   -7.4592 C.ar      1 <0>        -0.1141
      2 C2          1.7524   -2.2094   -6.9578 C.ar      1 <0>        -0.1199
      3 C3          3.8449   -3.3585   -6.5864 C.ar      1 <0>        -0.1158
      4 C4         -3.6091    1.1411   -5.5693 C.ar      1 <0>        -0.2947
      5 C5         -3.0325    2.1792   -4.8480 C.ar      1 <0>         0.4081
      6 C6         -1.0671    1.0351   -4.6027 C.ar      1 <0>         0.4476
      7 C7         -2.5929   -2.1074   -6.6985 C.ar      1 <0>         0.6819
      8 C8         -1.5640   -0.0578   -5.3182 C.ar      1 <0>        -0.4230
      9 C9         -2.8708   -0.0088   -5.8176 C.ar      1 <0>         0.4632
     10 C10         1.6178   -2.0106   -5.5838 C.ar      1 <0>         0.1719
     11 C11         2.5967   -2.4858   -4.7110 C.ar      1 <0>         0.0801
     12 C12         3.7103   -3.1597   -5.2124 C.ar      1 <0>        -0.0373
     13 C13        -0.8390   -1.2181   -5.5768 C.ar      1 <0>         0.7205
     14 C14         1.3862   -0.7681    0.3696 C.3       1 <0>         0.1373
     15 C15        -0.4011   -1.6256   -0.9977 C.3       1 <0>         0.1323
     16 C16         0.6262    0.5500    0.4864 C.3       1 <0>         0.1265
     17 C17        -1.1183   -0.2868   -0.8495 C.3       1 <0>         0.1264
     18 C18         1.7598   -2.6979   -1.0293 C.3       1 <0>         0.1722
     19 C19         1.7822   -3.1998   -2.4633 C.3       1 <0>         0.1778
     20 N1         -1.7763    2.1555   -4.3567 N.ar      1 <0>        -0.6720
     21 N2         -3.3921   -1.0362   -6.5117 N.ar      1 <0>        -0.7182
     22 N3         -1.3298   -2.2639   -6.2672 N.ar      1 <0>        -0.7699
     23 N4          1.0516   -1.4260   -0.9012 N.3       1 <0>        -0.7308
     24 N5          0.4804   -1.3250   -5.1009 N.pl3     1 <0>        -0.7377
     25 N6          2.4513   -2.2818   -3.3448 N.pl3     1 <0>        -0.7305
     26 O1         -0.7809    0.3227    0.3970 O.3       1 <0>        -0.4134
     27 Br1         5.0751   -3.8284   -4.0739 Br        1 <0>        -0.0952
     28 H1          2.9709   -3.0379   -8.5290 H         1 <0>         0.1434
     29 H2          0.9965   -1.8439   -7.6480 H         1 <0>         0.1526
     30 H3          4.7052   -3.8810   -6.9965 H         1 <0>         0.1492
     31 H4         -4.6283    1.2369   -5.9323 H         1 <0>         0.1647
     32 H5         -3.5913    3.0866   -4.6431 H         1 <0>         0.0287
     33 H6         -0.0621    1.0517   -4.1923 H         1 <0>         0.0291
     34 H7         -3.0178   -2.9314   -7.2589 H         1 <0>         0.0564
     35 H8          2.4619   -0.5649    0.4206 H         1 <0>         0.0557
     36 H9          1.1218   -1.4173    1.2145 H         1 <0>         0.0240
     37 H10        -0.7437   -2.3121   -0.2125 H         1 <0>         0.0254
     38 H11        -0.6613   -2.0622   -1.9686 H         1 <0>         0.0538
     39 H12         0.8283    1.0108    1.4587 H         1 <0>         0.0684
     40 H13         0.9320    1.2628   -0.2889 H         1 <0>         0.0428
     41 H14        -0.8723    0.3982   -1.6702 H         1 <0>         0.0386
     42 H15        -2.2020   -0.4410   -0.8615 H         1 <0>         0.0697
     43 H16         2.7728   -2.5486   -0.6424 H         1 <0>         0.0506
     44 H17         1.2442   -3.4186   -0.3868 H         1 <0>         0.0271
     45 H18         2.3189   -4.1517   -2.5231 H         1 <0>         0.0278
     46 H19         0.7688   -3.3478   -2.8499 H         1 <0>         0.0568
     47 H20         0.6529   -0.8098   -4.2440 H         1 <0>         0.4714
     48 H21         2.8422   -1.4304   -2.9498 H         1 <0>         0.3907
@<TRIPOS>BOND
     1    1    2 ar
     2    1    3 ar
     3    2   10 ar
     4    3   12 ar
     5    4    5 ar
     6    4    9 ar
     7    5   20 ar
     8    6    8 ar
     9    6   20 ar
    10    7   21 ar
    11    7   22 ar
    12    8    9 ar
    13    8   13 ar
    14    9   21 ar
    15   10   11 ar
    16   10   24 1
    17   11   12 ar
    18   11   25 1
    19   12   27 1
    20   13   22 ar
    21   13   24 1
    22   14   16 1
    23   14   23 1
    24   15   17 1
    25   15   23 1
    26   16   26 1
    27   17   26 1
    28   18   19 1
    29   18   23 1
    30   19   25 1
    31    1   28 1
    32    2   29 1
    33    3   30 1
    34    4   31 1
    35    5   32 1
    36    6   33 1
    37    7   34 1
    38   14   35 1
    39   14   36 1
    40   15   37 1
    41   15   38 1
    42   16   39 1
    43   16   40 1
    44   17   41 1
    45   17   42 1
    46   18   43 1
    47   18   44 1
    48   19   45 1
    49   19   46 1
    50   24   47 1
    51   25   48 1
@<TRIPOS>MOLECULE
CHEMBL503634_1
   36    37     0     0     0
SMALL
AM1BCC_CHARGES

@<TRIPOS>ATOM
      1 C1         -1.9646   -2.7970    3.0984 C.ar      1 <0>        -0.0880
      2 C2         -2.7663   -1.1212    4.6430 C.ar      1 <0>        -0.0850
      3 C3         -2.3183   -3.7990    4.0019 C.ar      1 <0>        -0.1568
      4 C4         -3.1200   -2.1232    5.5466 C.ar      1 <0>        -0.2085
      5 C5          1.8851   -1.0363   -0.1124 C.ar      1 <0>        -0.3382
      6 C6          0.7638   -0.4841    1.9551 C.ar      1 <0>        -0.2198
      7 C7         -2.1886   -1.4580    3.4189 C.ar      1 <0>        -0.1076
      8 C8         -2.8960   -3.4622    5.2260 C.ar      1 <0>         0.1236
      9 C9          0.8066   -0.4630    0.5610 C.ar      1 <0>         0.2079
     10 C10         2.9210   -1.6309    0.6081 C.ar      1 <0>         0.2003
     11 C11         1.7997   -1.0786    2.6757 C.ar      1 <0>         0.2198
     12 C12         2.8783   -1.6520    2.0022 C.ar      1 <0>        -0.0743
     13 C13        -0.3640    0.1174    2.6578 C.2       1 <0>         0.5112
     14 C14         3.7603   -3.6208    3.0030 C.3       1 <0>         0.1053
     15 C15        -1.8068   -0.3745    2.4418 C.3       1 <0>        -0.1220
     16 N1         -0.1908    1.1230    3.4851 N.2       1 <0>        -0.7421
     17 O1         -3.2422   -4.4402    6.1070 O.3       1 <0>        -0.4985
     18 O2         -0.1953    0.1115   -0.1630 O.3       1 <0>        -0.4921
     19 O3          3.9684   -2.1880   -0.0615 O.3       1 <0>        -0.4753
     20 O4          1.7655   -1.1041    4.0394 O.3       1 <0>        -0.4690
     21 O5          3.8921   -2.2329    2.7052 O.3       1 <0>        -0.3249
     22 H1         -1.5150   -3.0685    2.1471 H         1 <0>         0.1347
     23 H2         -2.9444   -0.0805    4.9013 H         1 <0>         0.1303
     24 H3         -2.1415   -4.8405    3.7463 H         1 <0>         0.1488
     25 H4         -3.5699   -1.8544    6.4982 H         1 <0>         0.1338
     26 H5          1.9181   -1.0214   -1.1991 H         1 <0>         0.1404
     27 H6          4.6342   -3.9581    3.5656 H         1 <0>         0.0630
     28 H7          3.6717   -4.1872    2.0725 H         1 <0>         0.0416
     29 H8          2.8615   -3.7712    3.6058 H         1 <0>         0.0255
     30 H9         -1.9333   -0.7666    1.4245 H         1 <0>         0.0741
     31 H10        -2.4901    0.4787    2.5022 H         1 <0>         0.0549
     32 H11        -1.0736    1.4478    3.8918 H         1 <0>         0.3804
     33 H12        -3.6294   -4.0505    6.9071 H         1 <0>         0.4185
     34 H13        -0.0072    0.0374   -1.1115 H         1 <0>         0.4248
     35 H14         3.8447   -2.0896   -1.0186 H         1 <0>         0.4228
     36 H15         2.5542   -1.5501    4.3840 H         1 <0>         0.4402
@<TRIPOS>BOND
     1    1    3 ar
     2    1    7 ar
     3    2    4 ar
     4    2    7 ar
     5    3    8 ar
     6    4    8 ar
     7    5    9 ar
     8    5   10 ar
     9    6    9 ar
    10    6   11 ar
    11    6   13 1
    12    7   15 1
    13    8   17 1
    14    9   18 1
    15   10   12 ar
    16   10   19 1
    17   11   12 ar
    18   11   20 1
    19   12   21 1
    20   13   15 1
    21   13   16 2
    22   14   21 1
    23    1   22 1
    24    2   23 1
    25    3   24 1
    26    4   25 1
    27    5   26 1
    28   14   27 1
    29   14   28 1
    30   14   29 1
    31   15   30 1
    32   15   31 1
    33   16   32 1
    34   17   33 1
    35   18   34 1
    36   19   35 1
    37   20   36 1
@<TRIPOS>MOLECULE
CHEMBL503643_1
   27    28     0     0     0
SMALL
AM1BCC_CHARGES

@<TRIPOS>ATOM
      1 C1         -0.7671    0.1975    0.7446 C.ar      1 <0>        -0.0452
      2 C2         -1.8022   -0.7245    0.9247 C.ar      1 <0>        -0.2093
      3 C3         -1.6773    1.6439    2.4698 C.ar      1 <0>        -0.0521
      4 C4         -3.8586    0.6897    3.5356 C.2       1 <0>        -0.0651
      5 C5         -2.7304    0.7292    2.6692 C.ar      1 <0>        -0.1410
      6 C6         -0.7036    1.3640    1.5041 C.ar      1 <0>        -0.1638
      7 C7         -2.7685   -0.4315    1.8936 C.ar      1 <0>         0.1059
      8 C8         -4.5471   -0.4724    3.2738 C.2       1 <0>        -0.0686
      9 C9          0.4002    2.3149    1.2898 C.2       1 <0>         0.9101
     10 C10        -5.7450   -0.9502    3.8886 C.2       1 <0>         0.6752
     11 C11        -7.6149   -4.0574    3.2060 C.3       1 <0>        -0.0991
     12 C12        -7.3499   -2.7433    3.9093 C.3       1 <0>         0.1438
     13 N1         -3.8818   -1.1421    2.2822 N.pl3     1 <0>        -0.5688
     14 O1          0.4406    3.3870    2.0016 O.co2     1 <0>        -0.8290
     15 O2          1.2876    2.0424    0.3976 O.co2     1 <0>        -0.8333
     16 O3         -6.3791   -0.3635    4.7959 O.2       1 <0>        -0.5620
     17 O4         -6.1572   -2.1599    3.3738 O.3       1 <0>        -0.4612
     18 H1         -0.0054   -0.0098   -0.0040 H         1 <0>         0.1620
     19 H2         -1.8500   -1.6323    0.3324 H         1 <0>         0.1120
     20 H3         -1.6250    2.5543    3.0613 H         1 <0>         0.1598
     21 H4         -4.1333    1.4342    4.2709 H         1 <0>         0.1588
     22 H5         -7.7531   -3.9042    2.1320 H         1 <0>         0.0456
     23 H6         -6.7827   -4.7522    3.3597 H         1 <0>         0.0447
     24 H7         -8.5106   -4.5388    3.6123 H         1 <0>         0.0367
     25 H8         -7.2126   -2.9036    4.9829 H         1 <0>         0.0450
     26 H9         -8.1819   -2.0500    3.7539 H         1 <0>         0.0457
     27 H10        -4.1648   -2.0291    1.8887 H         1 <0>         0.4531
@<TRIPOS>BOND
     1    1    2 ar
     2    1    6 ar
     3    2    7 ar
     4    3    5 ar
     5    3    6 ar
     6    4    5 1
     7    4    8 2
     8    5    7 ar
     9    6    9 1
    10    7   13 1
    11    8   10 1
    12    8   13 1
    13    9   14 1
    14    9   15 2
    15   10   16 2
    16   10   17 1
    17   11   12 1
    18   12   17 1
    19    1   18 1
    20    2   19 1
    21    3   20 1
    22    4   21 1
    23   11   22 1
    24   11   23 1
    25   11   24 1
    26   12   25 1
    27   12   26 1
    28   13   27 1
@<TRIPOS>MOLECULE
CHEMBL503870_1
   79    81     0     0     0
SMALL
AM1BCC_CHARGES

@<TRIPOS>ATOM
      1 C1          1.0565    9.8259   -4.1455 C.ar      1 <0>        -0.1168
      2 C2          0.4097    9.9037   -2.9121 C.ar      1 <0>        -0.1335
      3 C3          0.4977    9.0756   -5.1801 C.ar      1 <0>        -0.1341
      4 C4          0.5383    4.3570   -4.7480 C.2       1 <0>        -0.2613
      5 C5          6.3315   -1.3570   -2.5615 C.2       1 <0>        -0.2623
      6 C6         -0.7960    9.2310   -2.7133 C.ar      1 <0>        -0.1004
      7 C7         -0.7080    8.4029   -4.9812 C.ar      1 <0>        -0.1045
      8 C8          0.9434    3.6342   -3.6005 C.2       1 <0>        -0.2269
      9 C9          5.4658   -0.2395   -2.6308 C.2       1 <0>        -0.2418
     10 C10         1.5989    4.3107   -5.6227 C.2       1 <0>         0.2363
     11 C11         5.6618   -2.3970   -3.1630 C.2       1 <0>         0.2452
     12 C12        -1.3548    8.4805   -3.7479 C.ar      1 <0>        -0.1010
     13 C13         2.2225    3.1975   -3.8559 C.2       1 <0>         0.2059
     14 C14         4.3287   -0.6762   -3.2700 C.2       1 <0>         0.1990
     15 C15         1.4749   -0.4828   -1.2667 C.2       1 <0>        -0.1384
     16 C16         0.3321   -0.6605   -0.5904 C.2       1 <0>        -0.1593
     17 C17         1.9437    0.9044   -1.5571 C.2       1 <0>         0.6531
     18 C18        -0.1325   -2.0468   -0.2772 C.2       1 <0>         0.6756
     19 C19        -1.4098   -3.8302    2.1694 C.2       1 <0>         0.6363
     20 C20        -3.3427    2.5631   -0.8414 C.2       1 <0>         0.6390
     21 C21        -3.0412   -0.5386   -0.0044 C.2       1 <0>         0.6250
     22 C22        -3.4681    5.6546   -2.7996 C.2       1 <0>         0.7451
     23 C23        -4.2587    2.4591   -3.1733 C.3       1 <0>        -0.1155
     24 C24        -4.9978    0.1245    1.4179 C.3       1 <0>        -0.1056
     25 C25        -2.6516    7.7565   -3.5346 C.3       1 <0>         0.1992
     26 C26         3.2092    2.3900   -3.0632 C.3       1 <0>         0.0668
     27 C27         3.0441   -0.0014   -3.6555 C.3       1 <0>         0.0656
     28 C28        -1.9206   -3.4168    0.8084 C.3       1 <0>         0.0383
     29 C29        -3.9685    3.3568   -1.9806 C.3       1 <0>         0.0596
     30 C30        -3.7862    0.6202    0.6433 C.3       1 <0>         0.0408
     31 N1         -1.9567   -5.0220    2.5942 N.am      1 <0>        -0.6793
     32 N2         -4.1701    1.5375   -0.3971 N.am      1 <0>        -0.5403
     33 N3         -2.0681   -1.0601    0.8351 N.am      1 <0>        -0.4265
     34 N4         -3.0628    4.4186   -2.3325 N.am      1 <0>        -0.5482
     35 N5          2.6896    1.0707   -2.7275 N.am      1 <0>        -0.4722
     36 N6         -1.3231   -2.1513    0.4251 N.am      1 <0>        -0.3363
     37 O1          1.6866    1.8149   -0.7679 O.2       1 <0>        -0.5858
     38 O2          0.5279   -3.0210   -0.6405 O.2       1 <0>        -0.5810
     39 O3         -0.5687   -3.2014    2.8059 O.2       1 <0>        -0.6074
     40 O4         -2.2175    2.7926   -0.4029 O.2       1 <0>        -0.5920
     41 O5         -3.3141   -0.9723   -1.1219 O.2       1 <0>        -0.5794
     42 O6         -4.6306    6.0052   -2.9733 O.2       1 <0>        -0.5981
     43 O7          2.6294    3.6057   -5.0865 O.3       1 <0>        -0.3690
     44 O8          4.4402   -1.9903   -3.5977 O.3       1 <0>        -0.3602
     45 O9         -2.3765    6.4398   -3.0433 O.3       1 <0>        -0.4364
     46 H1          1.9946   10.3509   -4.3005 H         1 <0>         0.1319
     47 H2          0.8441   10.4888   -2.1068 H         1 <0>         0.1342
     48 H3          1.0004    9.0157   -6.1408 H         1 <0>         0.1329
     49 H4         -0.4079    4.8504   -4.9163 H         1 <0>         0.1661
     50 H5          7.3198   -1.3994   -2.1271 H         1 <0>         0.1638
     51 H6         -1.2928    9.2970   -1.7489 H         1 <0>         0.1367
     52 H7         -1.1359    7.8205   -5.7930 H         1 <0>         0.1326
     53 H8          0.3718    3.4559   -2.7008 H         1 <0>         0.1742
     54 H9          5.6504    0.7586   -2.2598 H         1 <0>         0.1634
     55 H10         1.7690    4.7079   -6.6126 H         1 <0>         0.0498
     56 H11         5.9041   -3.4326   -3.3513 H         1 <0>         0.0553
     57 H12         2.0933   -1.3190   -1.5696 H         1 <0>         0.1721
     58 H13        -0.2744    0.1831   -0.2843 H         1 <0>         0.1658
     59 H14        -3.3452    1.9746   -3.5370 H         1 <0>         0.0589
     60 H15        -4.9700    1.6688   -2.9113 H         1 <0>         0.0445
     61 H16        -4.6811    3.0369   -4.0024 H         1 <0>         0.0635
     62 H17        -5.6884   -0.4213    0.7668 H         1 <0>         0.0525
     63 H18        -4.6946   -0.5453    2.2298 H         1 <0>         0.0578
     64 H19        -5.5526    0.9583    1.8635 H         1 <0>         0.0609
     65 H20        -3.2803    8.2842   -2.8093 H         1 <0>         0.0626
     66 H21        -3.2118    7.6800   -4.4727 H         1 <0>         0.0596
     67 H22         4.1381    2.2531   -3.6276 H         1 <0>         0.0716
     68 H23         3.4690    2.8956   -2.1272 H         1 <0>         0.0954
     69 H24         3.1218    0.4325   -4.6584 H         1 <0>         0.0813
     70 H25         2.2148   -0.7163   -3.6738 H         1 <0>         0.0792
     71 H26        -3.0063   -3.2887    0.8212 H         1 <0>         0.0753
     72 H27        -1.6425   -4.1723    0.0685 H         1 <0>         0.1078
     73 H28        -4.8920    3.8316   -1.6316 H         1 <0>         0.0975
     74 H29        -3.1078    1.1630    1.3106 H         1 <0>         0.1005
     75 H30        -2.6229   -5.5249    2.0174 H         1 <0>         0.3073
     76 H31        -1.7191   -5.4416    3.4874 H         1 <0>         0.3194
     77 H32        -5.1036    1.4488   -0.7936 H         1 <0>         0.3177
     78 H33        -1.8521   -0.6827    1.7522 H         1 <0>         0.3363
     79 H34        -2.0642    4.2491   -2.2314 H         1 <0>         0.3540
@<TRIPOS>BOND
     1    1    2 ar
     2    1    3 ar
     3    2    6 ar
     4    3    7 ar
     5    4    8 1
     6    4   10 2
     7    5    9 1
     8    5   11 2
     9    6   12 ar
    10    7   12 ar
    11    8   13 2
    12    9   14 2
    13   10   43 1
    14   11   44 1
    15   12   25 1
    16   13   26 1
    17   13   43 1
    18   14   27 1
    19   14   44 1
    20   15   16 2
    21   15   17 1
    22   16   18 1
    23   17   35 am
    24   17   37 2
    25   18   36 am
    26   18   38 2
    27   19   28 1
    28   19   31 am
    29   19   39 2
    30   20   29 1
    31   20   32 am
    32   20   40 2
    33   21   30 1
    34   21   33 am
    35   21   41 2
    36   22   34 am
    37   22   42 2
    38   22   45 1
    39   23   29 1
    40   24   30 1
    41   25   45 1
    42   26   35 1
    43   27   35 1
    44   28   36 1
    45   29   34 1
    46   30   32 1
    47   33   36 1
    48    1   46 1
    49    2   47 1
    50    3   48 1
    51    4   49 1
    52    5   50 1
    53    6   51 1
    54    7   52 1
    55    8   53 1
    56    9   54 1
    57   10   55 1
    58   11   56 1
    59   15   57 1
    60   16   58 1
    61   23   59 1
    62   23   60 1
    63   23   61 1
    64   24   62 1
    65   24   63 1
    66   24   64 1
    67   25   65 1
    68   25   66 1
    69   26   67 1
    70   26   68 1
    71   27   69 1
    72   27   70 1
    73   28   71 1
    74   28   72 1
    75   29   73 1
    76   30   74 1
    77   31   75 1
    78   31   76 1
    79   32   77 1
    80   33   78 1
    81   34   79 1
@<TRIPOS>MOLECULE
CHEMBL504077_1
   80    87     0     0     0
SMALL
AM1BCC_CHARGES

@<TRIPOS>ATOM
      1 C1         -8.3716    2.7216    0.1589 C.ar      1 <0>        -0.1723
      2 C2          2.4610   -0.1297    0.5944 C.ar      1 <0>        -0.1343
      3 C3          1.6181    0.4012    1.5705 C.ar      1 <0>        -0.1020
      4 C4         -0.3296    1.2498    3.7398 C.ar      1 <0>        -0.0888
      5 C5         -7.0548    2.5906   -0.2782 C.ar      1 <0>        -0.0563
      6 C6         -9.2992    1.7351   -0.1448 C.ar      1 <0>        -0.0881
      7 C7         -1.2368    1.7978    4.6517 C.ar      1 <0>        -0.1960
      8 C8          2.8382   -1.0977   -1.5931 C.ar      1 <0>        -0.1243
      9 C9          0.0827   -0.9712   -2.1321 C.ar      1 <0>        -0.1042
     10 C10         1.9542   -0.5964   -0.6202 C.ar      1 <0>        -0.0226
     11 C11         0.5497   -0.5428   -0.8642 C.ar      1 <0>        -0.0277
     12 C12        -0.6881    1.0295    2.3987 C.ar      1 <0>        -0.0453
     13 C13         0.2305    0.4616    1.3821 C.ar      1 <0>        -0.0685
     14 C14        -6.6480    1.4697   -1.0256 C.ar      1 <0>        -0.1430
     15 C15        -2.0037    1.3627    2.0066 C.ar      1 <0>        -0.0860
     16 C16        -0.3095   -0.0329    0.1597 C.ar      1 <0>         0.1361
     17 C17        -7.5853    0.4701   -1.3338 C.ar      1 <0>         0.1193
     18 C18         2.3228   -1.5196   -2.7983 C.ar      1 <0>         0.0726
     19 C19         0.9814   -1.4535   -3.0629 C.ar      1 <0>         0.0540
     20 C20        -8.9107    0.6178   -0.8850 C.ar      1 <0>         0.0257
     21 C21        -2.5224    2.1359    4.2443 C.ar      1 <0>         0.1157
     22 C22        -2.9070    1.9196    2.9251 C.ar      1 <0>         0.0733
     23 C23        -3.5115    0.1456   -2.6429 C.2       1 <0>        -0.0733
     24 C24        -2.6343    1.1069   -2.3407 C.2       1 <0>        -0.1958
     25 C25        -5.2612    1.3274   -1.4891 C.2       1 <0>         0.2435
     26 C26        -4.8813    0.2552   -2.2017 C.2       1 <0>        -0.2681
     27 C27        -5.8571   -0.8276   -2.5456 C.2       1 <0>         0.7161
     28 C28         1.9825   -2.2679   -4.7979 C.3       1 <0>         0.3210
     29 C29        -2.4315    1.1312    0.5719 C.3       1 <0>         0.2425
     30 C30        -3.0311    2.3235   -1.5410 C.3       1 <0>         0.2046
     31 C31        -2.7868    3.5856   -2.3749 C.3       1 <0>        -0.1027
     32 C32        -8.1124   -1.7324   -2.4358 C.3       1 <0>         0.0609
     33 C33        -2.3643   -1.3206    0.0818 C.3       1 <0>         0.1666
     34 C34       -10.6791   -0.0991   -2.3043 C.3       1 <0>         0.1117
     35 C35        -2.9130    2.8601    6.4756 C.3       1 <0>         0.1118
     36 C36        -5.1755    1.2547    2.6646 C.3       1 <0>         0.1153
     37 C37        -2.2242    2.3817   -0.2878 C.3       1 <0>        -0.0795
     38 N1         -7.1705   -0.6696   -2.0939 N.am      1 <0>        -0.3467
     39 N2         -1.7139   -0.0131   -0.0168 N.pl3     1 <0>        -0.6284
     40 O1         -5.4625   -1.7942   -3.2018 O.2       1 <0>        -0.6382
     41 O2          3.0347   -2.0225   -3.8426 O.3       1 <0>        -0.3349
     42 O3          0.6753   -1.9029   -4.3104 O.3       1 <0>        -0.3319
     43 O4         -4.4167    2.3592   -1.1381 O.3       1 <0>        -0.3203
     44 O5         -9.9096   -0.2815   -1.1185 O.3       1 <0>        -0.3450
     45 O6         -3.3914    2.6730    5.1448 O.3       1 <0>        -0.3140
     46 O7         -4.1718    2.2586    2.5398 O.3       1 <0>        -0.3291
     47 H1         -8.6697    3.5920    0.7355 H         1 <0>         0.1444
     48 H2          3.5309   -0.1548    0.7944 H         1 <0>         0.1358
     49 H3          2.0831    0.7753    2.4788 H         1 <0>         0.1333
     50 H4          0.6588    0.9927    4.1110 H         1 <0>         0.1370
     51 H5         -6.3537    3.3817   -0.0221 H         1 <0>         0.1622
     52 H6        -10.3249    1.8414    0.1989 H         1 <0>         0.1468
     53 H7         -0.9284    1.9566    5.6818 H         1 <0>         0.1409
     54 H8          3.9084   -1.1472   -1.4124 H         1 <0>         0.1564
     55 H9         -0.9698   -0.9224   -2.3958 H         1 <0>         0.1741
     56 H10        -3.1931   -0.7159   -3.2187 H         1 <0>         0.1623
     57 H11        -1.6050    1.0150   -2.6764 H         1 <0>         0.1502
     58 H12         2.1919   -1.6920   -5.7066 H         1 <0>         0.0724
     59 H13         1.9784   -3.3346   -5.0501 H         1 <0>         0.0749
     60 H14        -3.5047    0.8967    0.5496 H         1 <0>         0.0803
     61 H15        -3.0723    4.4628   -1.7998 H         1 <0>         0.0507
     62 H16        -3.3808    3.5417   -3.2842 H         1 <0>         0.0516
     63 H17        -1.7333    3.6519   -2.6349 H         1 <0>         0.0499
     64 H18        -8.5914   -1.5027   -3.3991 H         1 <0>         0.0363
     65 H19        -7.5740   -2.6885   -2.5130 H         1 <0>         0.0808
     66 H20        -8.8813   -1.8068   -1.6527 H         1 <0>         0.0726
     67 H21        -3.4478   -1.2040   -0.0683 H         1 <0>         0.0554
     68 H22        -1.9576   -1.9914   -0.6893 H         1 <0>         0.0567
     69 H23        -2.1762   -1.7494    1.0772 H         1 <0>         0.0189
     70 H24       -11.4395   -0.8811   -2.3701 H         1 <0>         0.0627
     71 H25       -10.0217   -0.1410   -3.1764 H         1 <0>         0.0330
     72 H26       -11.1668    0.8778   -2.2648 H         1 <0>         0.0303
     73 H27        -3.7048    3.2951    7.0904 H         1 <0>         0.0695
     74 H28        -2.0431    3.5215    6.4614 H         1 <0>         0.0362
     75 H29        -2.6246    1.8908    6.8892 H         1 <0>         0.0320
     76 H30        -6.1345    1.6531    2.3247 H         1 <0>         0.0643
     77 H31        -5.2491    0.9396    3.7085 H         1 <0>         0.0380
     78 H32        -4.8997    0.3975    2.0459 H         1 <0>         0.0240
     79 H33        -2.5073    3.2602    0.2947 H         1 <0>         0.0760
     80 H34        -1.1643    2.4683   -0.5334 H         1 <0>         0.0669
@<TRIPOS>BOND
     1    1    5 ar
     2    1    6 ar
     3    2    3 ar
     4    2   10 ar
     5    3   13 ar
     6    4    7 ar
     7    4   12 ar
     8    5   14 ar
     9    6   20 ar
    10    7   21 ar
    11    8   10 ar
    12    8   18 ar
    13    9   11 ar
    14    9   19 ar
    15   10   11 ar
    16   11   16 ar
    17   12   13 1
    18   12   15 ar
    19   13   16 ar
    20   14   17 ar
    21   14   25 1
    22   15   22 ar
    23   15   29 1
    24   16   39 1
    25   17   20 ar
    26   17   38 1
    27   18   19 ar
    28   18   41 1
    29   19   42 1
    30   20   44 1
    31   21   22 ar
    32   21   45 1
    33   22   46 1
    34   23   24 2
    35   23   26 1
    36   24   30 1
    37   25   26 2
    38   25   43 1
    39   26   27 1
    40   27   38 am
    41   27   40 2
    42   28   41 1
    43   28   42 1
    44   29   37 1
    45   29   39 1
    46   30   31 1
    47   30   37 1
    48   30   43 1
    49   32   38 1
    50   33   39 1
    51   34   44 1
    52   35   45 1
    53   36   46 1
    54    1   47 1
    55    2   48 1
    56    3   49 1
    57    4   50 1
    58    5   51 1
    59    6   52 1
    60    7   53 1
    61    8   54 1
    62    9   55 1
    63   23   56 1
    64   24   57 1
    65   28   58 1
    66   28   59 1
    67   29   60 1
    68   31   61 1
    69   31   62 1
    70   31   63 1
    71   32   64 1
    72   32   65 1
    73   32   66 1
    74   33   67 1
    75   33   68 1
    76   33   69 1
    77   34   70 1
    78   34   71 1
    79   34   72 1
    80   35   73 1
    81   35   74 1
    82   35   75 1
    83   36   76 1
    84   36   77 1
    85   36   78 1
    86   37   79 1
    87   37   80 1
@<TRIPOS>MOLECULE
CHEMBL501567_1
  152   157     0     0     0
SMALL
AM1BCC_CHARGES

@<TRIPOS>ATOM
      1 C1         -4.7520   -7.9278    7.4770 C.ar      1 <0>        -0.1444
      2 C2         -9.7572    4.2747    5.3355 C.ar      1 <0>        -0.1496
      3 C3         -4.0998   -9.0217    8.0459 C.ar      1 <0>        -0.1342
      4 C4         -5.0546   -7.9271    6.1153 C.ar      1 <0>        -0.1302
      5 C5        -10.6033    5.3676    5.5135 C.ar      1 <0>        -0.1101
      6 C6         -9.3174    3.9100    4.0578 C.ar      1 <0>        -0.0781
      7 C7         -3.7502  -10.1148    7.2531 C.ar      1 <0>        -0.1218
      8 C8         -4.7050   -9.0202    5.3225 C.ar      1 <0>        -0.1046
      9 C9        -11.0358    6.1292    4.4241 C.ar      1 <0>        -0.1557
     10 C10       -10.1926    5.6068    0.9409 C.2       1 <0>         0.0155
     11 C11        -3.1790    2.4068    2.8935 C.2       1 <0>        -0.2546
     12 C12        -2.5631    0.7132    4.1620 C.2       1 <0>         0.3996
     13 C13        -9.7403    4.6628    2.9444 C.ar      1 <0>        -0.0826
     14 C14        -4.0528  -10.1141    5.8914 C.ar      1 <0>        -0.0753
     15 C15        -9.4993    4.5830    1.5442 C.2       1 <0>        -0.1413
     16 C16       -10.5881    5.7528    3.1528 C.ar      1 <0>         0.0775
     17 C17        -3.1991    1.2223    2.1956 C.2       1 <0>         0.2876
     18 C18        -6.1889    6.1557    1.1285 C.2       1 <0>         0.6534
     19 C19        -1.4864   -9.1604    3.1699 C.2       1 <0>         0.6461
     20 C20        -2.3422   -6.1819    2.7362 C.2       1 <0>         0.6449
     21 C21        -7.1743    9.0615    1.7426 C.2       1 <0>         0.6527
     22 C22        -3.7800   -3.7680    1.3555 C.2       1 <0>         0.6461
     23 C23        -6.3310    2.8223    0.1934 C.2       1 <0>         0.6380
     24 C24        -5.4720   -0.5301    1.3688 C.2       1 <0>         0.6623
     25 C25        -1.7616  -12.5215    3.9659 C.2       1 <0>         0.6273
     26 C26        -0.2837  -15.2576    6.0220 C.2       1 <0>         0.9076
     27 C27         0.5945   -7.8714    1.2079 C.3       1 <0>        -0.0893
     28 C28        -3.6931    8.0457    0.9279 C.3       1 <0>        -0.0854
     29 C29        -0.5658   -8.8041    0.8692 C.3       1 <0>        -0.0837
     30 C30        -4.5126    7.4449   -0.2116 C.3       1 <0>        -0.0868
     31 C31        -0.1015   -6.5823    1.6177 C.3       1 <0>         0.0939
     32 C32        -4.6456    9.0568    1.5480 C.3       1 <0>         0.0838
     33 C33        -5.9291    7.4105    0.3504 C.3       1 <0>         0.0307
     34 C34        -1.6397   -8.4147    1.8784 C.3       1 <0>         0.0396
     35 C35        -0.0090   -2.3762    3.2573 C.3       1 <0>        -0.0888
     36 C36        -0.3796   -2.6690    5.7142 C.3       1 <0>        -0.0921
     37 C37        -7.6523   -5.7743    0.4337 C.3       1 <0>        -0.0895
     38 C38        -6.9410   -5.0966    2.7349 C.3       1 <0>        -0.0901
     39 C39        -3.6746  -11.2964    5.0330 C.3       1 <0>        -0.0442
     40 C40        -8.6412    3.5629    0.8366 C.3       1 <0>        -0.0152
     41 C41        -3.5764    0.9949    0.7521 C.3       1 <0>        -0.1041
     42 C42        -1.3227   -4.3814    4.1346 C.3       1 <0>        -0.0833
     43 C43        -6.2033   -3.7388    0.7033 C.3       1 <0>        -0.0851
     44 C44        -6.9129   10.0363    4.0722 C.3       1 <0>        -0.0652
     45 C45         1.0238  -14.1947    4.0268 C.3       1 <0>         0.0506
     46 C46        -1.9825   -4.7189    2.7977 C.3       1 <0>         0.0407
     47 C47        -7.0481   10.3131    2.5740 C.3       1 <0>         0.0505
     48 C48        -5.0905   -2.9930    1.4508 C.3       1 <0>         0.0426
     49 C49        -7.1429    3.8664    0.9515 C.3       1 <0>         0.0287
     50 C50        -5.0703    0.7038    0.5685 C.3       1 <0>         0.0342
     51 C51        -2.2766  -11.1600    4.4188 C.3       1 <0>         0.0210
     52 C52        -0.3157  -14.3997    4.7404 C.3       1 <0>        -0.0504
     53 C53        -0.9786   -2.8900    4.3225 C.3       1 <0>        -0.0691
     54 C54        -6.5323   -5.1383    1.2618 C.3       1 <0>        -0.0720
     55 N1         -2.8150    0.1718    2.9909 N.2       1 <0>        -0.6480
     56 N2         -2.7700    2.0647    4.1516 N.pl3     1 <0>        -0.3221
     57 N3        -10.8460    6.3070    1.9193 N.pl3     1 <0>        -0.5836
     58 N4         -1.3883   -7.0079    2.1623 N.am      1 <0>        -0.4470
     59 N5         -5.9799    8.5194    1.2942 N.am      1 <0>        -0.4205
     60 N6         -6.8043    5.1536    0.3986 N.am      1 <0>        -0.5289
     61 N7         -2.2710  -10.2942    3.2615 N.am      1 <0>        -0.5305
     62 N8         -3.2440   -4.0402    2.6065 N.am      1 <0>        -0.5268
     63 N9         -4.8492   -1.6833    0.9031 N.am      1 <0>        -0.5474
     64 N10        -5.8970    1.7938    1.0220 N.am      1 <0>        -0.5406
     65 N11        -0.9695  -13.1252    4.9327 N.am      1 <0>        -0.4981
     66 N12        -8.1801   11.2557    2.3575 N.4       1 <0>        -0.8529
     67 O1         -1.1606  -14.9714    6.8872 O.co2     1 <0>        -0.8212
     68 O2         -5.8556    6.0952    2.3062 O.2       1 <0>        -0.6095
     69 O3         -0.7122   -8.7403    4.0219 O.2       1 <0>        -0.6044
     70 O4         -3.4189   -6.5776    3.1860 O.2       1 <0>        -0.6095
     71 O5         -8.2836    8.5792    1.5082 O.2       1 <0>        -0.5915
     72 O6         -3.2553   -4.0663    0.2845 O.2       1 <0>        -0.6140
     73 O7         -6.0649    2.9206   -1.0026 O.2       1 <0>        -0.6271
     74 O8         -6.2879   -0.4953    2.2875 O.2       1 <0>        -0.6242
     75 O9         -1.9963  -12.9896    2.8538 O.2       1 <0>        -0.6699
     76 O10         0.6304  -16.1280    6.0784 O.co2     1 <0>        -0.8212
     77 S1         -8.3264    9.1539    4.8141 S.3       1 <0>        -0.2465
     78 S2          2.2759  -13.3557    5.0526 S.3       1 <0>        -0.4932
     79 H1         -5.0253   -7.0773    8.0947 H         1 <0>         0.1142
     80 H2         -9.4340    3.6982    6.1981 H         1 <0>         0.1380
     81 H3         -3.8650   -9.0230    9.1063 H         1 <0>         0.1240
     82 H4         -5.5634   -7.0760    5.6723 H         1 <0>         0.1213
     83 H5        -10.9327    5.6331    6.5147 H         1 <0>         0.1306
     84 H6         -8.6573    3.0559    3.9358 H         1 <0>         0.1402
     85 H7         -3.2420  -10.9627    7.7049 H         1 <0>         0.1440
     86 H8         -4.9447   -9.0108    4.2625 H         1 <0>         0.1380
     87 H9        -11.6952    6.9791    4.5635 H         1 <0>         0.1227
     88 H10       -10.2791    5.9015   -0.0959 H         1 <0>         0.1633
     89 H11        -3.4100    3.4271    2.6229 H         1 <0>         0.1729
     90 H12        -2.2316    0.1896    5.0475 H         1 <0>         0.0693
     91 H13         1.1745   -8.2733    2.0467 H         1 <0>         0.0714
     92 H14         1.2708   -7.7289    0.3603 H         1 <0>         0.0513
     93 H15        -3.4317    7.2719    1.6589 H         1 <0>         0.0831
     94 H16        -2.7680    8.5080    0.5721 H         1 <0>         0.0759
     95 H17        -0.9174   -8.6006   -0.1493 H         1 <0>         0.0512
     96 H18        -0.2670   -9.8550    0.9315 H         1 <0>         0.0821
     97 H19        -4.4672    8.1055   -1.0860 H         1 <0>         0.0682
     98 H20        -4.1344    6.4589   -0.5003 H         1 <0>         0.0935
     99 H21         0.4671   -6.0134    2.3583 H         1 <0>         0.0440
    100 H22        -0.2976   -5.9433    0.7498 H         1 <0>         0.0421
    101 H23        -4.4767    9.1927    2.6197 H         1 <0>         0.0585
    102 H24        -4.5733   10.0291    1.0487 H         1 <0>         0.0398
    103 H25        -6.6994    7.5163   -0.4201 H         1 <0>         0.0959
    104 H26        -2.6569   -8.5641    1.5040 H         1 <0>         0.0816
    105 H27         0.9296   -2.9404    3.2823 H         1 <0>         0.0324
    106 H28         0.2429   -1.3242    3.4212 H         1 <0>         0.0280
    107 H29        -0.4345   -2.4738    2.2528 H         1 <0>         0.0412
    108 H30         0.5495   -3.2350    5.8418 H         1 <0>         0.0425
    109 H31        -0.1559   -1.6094    5.8779 H         1 <0>         0.0199
    110 H32        -1.0799   -2.9852    6.4945 H         1 <0>         0.0357
    111 H33        -8.5666   -5.1737    0.4892 H         1 <0>         0.0272
    112 H34        -7.8902   -6.7766    0.8056 H         1 <0>         0.0431
    113 H35        -7.3677   -5.8619   -0.6203 H         1 <0>         0.0341
    114 H36        -7.8240   -4.4660    2.8842 H         1 <0>         0.0305
    115 H37        -7.1783   -6.1016    3.1004 H         1 <0>         0.0481
    116 H38        -6.1333   -4.7082    3.3622 H         1 <0>         0.0292
    117 H39        -3.7415  -12.2192    5.6251 H         1 <0>         0.0760
    118 H40        -4.4311  -11.4048    4.2445 H         1 <0>         0.0571
    119 H41        -8.8576    2.5608    1.2309 H         1 <0>         0.0799
    120 H42        -8.9459    3.5293   -0.2178 H         1 <0>         0.0652
    121 H43        -3.2821    1.8664    0.1516 H         1 <0>         0.0582
    122 H44        -2.9731    0.1625    0.3661 H         1 <0>         0.0788
    123 H45        -0.4093   -4.9817    4.2431 H         1 <0>         0.0691
    124 H46        -1.9860   -4.6937    4.9533 H         1 <0>         0.0658
    125 H47        -5.9147   -3.8406   -0.3523 H         1 <0>         0.0594
    126 H48        -7.1159   -3.1280    0.7057 H         1 <0>         0.0505
    127 H49        -6.0177    9.4300    4.2511 H         1 <0>         0.1451
    128 H50        -6.7801   10.9745    4.6226 H         1 <0>         0.0936
    129 H51         1.4412  -15.1611    3.7230 H         1 <0>         0.0813
    130 H52         0.8862  -13.5985    3.1188 H         1 <0>         0.0547
    131 H53        -1.3370   -4.4895    1.9458 H         1 <0>         0.0915
    132 H54        -6.1572   10.8403    2.2259 H         1 <0>         0.1211
    133 H55        -5.3423   -2.8561    2.5072 H         1 <0>         0.0982
    134 H56        -6.8194    3.8814    1.9990 H         1 <0>         0.1065
    135 H57        -5.3172    0.5427   -0.4874 H         1 <0>         0.0970
    136 H58        -1.5679  -10.7284    5.1353 H         1 <0>         0.1077
    137 H59        -0.9677  -14.9532    4.0511 H         1 <0>         0.0670
    138 H60        -1.9007   -2.2989    4.2612 H         1 <0>         0.0569
    139 H61        -5.6476   -5.7800    1.1686 H         1 <0>         0.0710
    140 H62        -2.6428    2.6953    4.9318 H         1 <0>         0.3000
    141 H63       -11.4332    7.1141    1.7599 H         1 <0>         0.4461
    142 H64        -7.0289    5.3348   -0.5770 H         1 <0>         0.3301
    143 H65        -2.8725  -10.5304    2.4780 H         1 <0>         0.3180
    144 H66        -3.7474   -3.7448    3.4378 H         1 <0>         0.3206
    145 H67        -4.1875   -1.5968    0.1341 H         1 <0>         0.3299
    146 H68        -6.1777    1.8116    1.9999 H         1 <0>         0.3411
    147 H69        -0.8430  -12.6473    5.8200 H         1 <0>         0.3347
    148 H70        -7.9261   12.2008    2.6578 H         1 <0>         0.4482
    149 H71        -9.0028   10.9603    2.8906 H         1 <0>         0.4918
    150 H72        -8.4360   11.2919    1.3669 H         1 <0>         0.4688
    151 H73        -9.2398   10.0835    4.5070 H         1 <0>         0.2015
    152 H74         2.2968  -14.2799    6.0214 H         1 <0>         0.2691
@<TRIPOS>BOND
     1    1    3 ar
     2    1    4 ar
     3    2    5 ar
     4    2    6 ar
     5    3    7 ar
     6    4    8 ar
     7    5    9 ar
     8    6   13 ar
     9    7   14 ar
    10    8   14 ar
    11    9   16 ar
    12   10   15 2
    13   10   57 1
    14   11   17 2
    15   11   56 1
    16   12   55 2
    17   12   56 1
    18   13   15 1
    19   13   16 ar
    20   14   39 1
    21   15   40 1
    22   16   57 1
    23   17   41 1
    24   17   55 1
    25   18   33 1
    26   18   60 am
    27   18   68 2
    28   19   34 1
    29   19   61 am
    30   19   69 2
    31   20   46 1
    32   20   58 am
    33   20   70 2
    34   21   47 1
    35   21   59 am
    36   21   71 2
    37   22   48 1
    38   22   62 am
    39   22   72 2
    40   23   49 1
    41   23   64 am
    42   23   73 2
    43   24   50 1
    44   24   63 am
    45   24   74 2
    46   25   51 1
    47   25   65 am
    48   25   75 2
    49   26   52 1
    50   26   67 1
    51   26   76 2
    52   27   29 1
    53   27   31 1
    54   28   30 1
    55   28   32 1
    56   29   34 1
    57   30   33 1
    58   31   58 1
    59   32   59 1
    60   33   59 1
    61   34   58 1
    62   35   53 1
    63   36   53 1
    64   37   54 1
    65   38   54 1
    66   39   51 1
    67   40   49 1
    68   41   50 1
    69   42   46 1
    70   42   53 1
    71   43   48 1
    72   43   54 1
    73   44   47 1
    74   44   77 1
    75   45   52 1
    76   45   78 1
    77   46   62 1
    78   47   66 1
    79   48   63 1
    80   49   60 1
    81   50   64 1
    82   51   61 1
    83   52   65 1
    84    1   79 1
    85    2   80 1
    86    3   81 1
    87    4   82 1
    88    5   83 1
    89    6   84 1
    90    7   85 1
    91    8   86 1
    92    9   87 1
    93   10   88 1
    94   11   89 1
    95   12   90 1
    96   27   91 1
    97   27   92 1
    98   28   93 1
    99   28   94 1
   100   29   95 1
   101   29   96 1
   102   30   97 1
   103   30   98 1
   104   31   99 1
   105   31  100 1
   106   32  101 1
   107   32  102 1
   108   33  103 1
   109   34  104 1
   110   35  105 1
   111   35  106 1
   112   35  107 1
   113   36  108 1
   114   36  109 1
   115   36  110 1
   116   37  111 1
   117   37  112 1
   118   37  113 1
   119   38  114 1
   120   38  115 1
   121   38  116 1
   122   39  117 1
   123   39  118 1
   124   40  119 1
   125   40  120 1
   126   41  121 1
   127   41  122 1
   128   42  123 1
   129   42  124 1
   130   43  125 1
   131   43  126 1
   132   44  127 1
   133   44  128 1
   134   45  129 1
   135   45  130 1
   136   46  131 1
   137   47  132 1
   138   48  133 1
   139   49  134 1
   140   50  135 1
   141   51  136 1
   142   52  137 1
   143   53  138 1
   144   54  139 1
   145   56  140 1
   146   57  141 1
   147   60  142 1
   148   61  143 1
   149   62  144 1
   150   63  145 1
   151   64  146 1
   152   65  147 1
   153   66  148 1
   154   66  149 1
   155   66  150 1
   156   77  151 1
   157   78  152 1
@<TRIPOS>MOLECULE
CHEMBL501665_1
  144   152     0     0     0
SMALL
AM1BCC_CHARGES

@<TRIPOS>ATOM
      1 C1          2.0425    4.5460   -8.5454 C.2       1 <0>        -0.1865
      2 C2          2.7034    5.4940   -9.2370 C.2       1 <0>        -0.1110
      3 C3         -4.8014   -2.2485   -4.8177 C.2       1 <0>         0.9333
      4 C4         -4.8414   -2.6333   -2.3468 C.2       1 <0>         0.6743
      5 C5          0.5932   -0.0571   -5.3075 C.3       1 <0>        -0.0642
      6 C6          0.1893   -0.6828   -3.9648 C.3       1 <0>        -0.0834
      7 C7         -0.2987    1.9257   -0.3932 C.3       1 <0>        -0.0721
      8 C8          2.0765   -1.6388    0.1021 C.3       1 <0>        -0.0768
      9 C9         -0.0597    2.5807   -1.7566 C.3       1 <0>        -0.0722
     10 C10         1.3104   -1.5681   -1.2234 C.3       1 <0>        -0.0720
     11 C11        -0.0255    3.1415   -8.9696 C.3       1 <0>        -0.1191
     12 C12        -0.4231    3.5350   -4.8762 C.3       1 <0>        -0.0840
     13 C13         1.8718   -4.4881    3.8431 C.3       1 <0>         0.1312
     14 C14         1.6747    2.7096   -4.3199 C.3       1 <0>         0.1274
     15 C15         0.5632    4.4242   -8.3410 C.3       1 <0>         0.1937
     16 C16        -0.0879    1.2922   -5.5031 C.3       1 <0>        -0.0617
     17 C17         0.4048    0.2753   -2.7566 C.3       1 <0>        -0.0401
     18 C18         0.5530    0.6509   -0.2249 C.3       1 <0>        -0.0384
     19 C19         0.3551    2.1138   -6.7319 C.3       1 <0>        -0.0969
     20 C20         1.2115   -1.3324    1.3191 C.3       1 <0>         0.1592
     21 C21         0.8537   -5.6167    3.9456 C.3       1 <0>         0.0931
     22 C22        -2.7282   -8.6453    6.3080 C.3       1 <0>         0.0780
     23 C23        -0.5663   -5.0547    3.9016 C.3       1 <0>         0.0957
     24 C24        -1.6108   -9.6532    6.0384 C.3       1 <0>         0.0807
     25 C25        -4.8686   -2.6774    2.1433 C.3       1 <0>         0.1230
     26 C26        -2.7844   -7.5762    5.2166 C.3       1 <0>         0.0891
     27 C27        -4.3739   -3.8725    2.9329 C.3       1 <0>         0.1166
     28 C28        -0.7548   -4.1244    2.7045 C.3       1 <0>         0.1494
     29 C29        -0.2930   -8.9354    5.7370 C.3       1 <0>         0.1113
     30 C30        -4.3143   -2.9135    0.7403 C.3       1 <0>         0.0812
     31 C31        -1.3992   -6.9927    4.9380 C.3       1 <0>         0.3004
     32 C32        -3.0612   -4.2113    2.2445 C.3       1 <0>         0.2956
     33 C33         0.3654   -3.0824    2.6487 C.3       1 <0>         0.3417
     34 C34         0.1831    2.2594   -4.3063 C.3       1 <0>        -0.0797
     35 C35         0.2476   -0.4176   -1.3337 C.3       1 <0>        -0.0188
     36 C36        -0.3481    1.6510   -2.9610 C.3       1 <0>        -0.0032
     37 C37         0.6014    0.1048    1.2590 C.3       1 <0>        -0.0504
     38 C38        -0.5844    2.1373   -7.9442 C.3       1 <0>         0.1691
     39 C39         0.4963    3.5232   -6.1068 C.3       1 <0>         0.3291
     40 C40         4.2026    5.4735   -9.3474 C.3       1 <0>        -0.0583
     41 C41         2.0288    6.6337   -9.9467 C.3       1 <0>        -0.0593
     42 C42        -1.1498   -1.0588   -1.1744 C.3       1 <0>        -0.1012
     43 C43        -1.8919    1.4958   -3.0548 C.3       1 <0>        -0.0981
     44 C44         1.5558    1.0307    2.0688 C.3       1 <0>        -0.0929
     45 C45        -0.7639    0.1594    1.9769 C.3       1 <0>        -0.0822
     46 C46        -0.7377    0.7552   -8.5789 C.3       1 <0>        -0.1297
     47 C47        -4.1492   -2.9704   -3.6430 C.3       1 <0>        -0.2605
     48 C48         0.8165   -9.9061    5.3445 C.3       1 <0>         0.1369
     49 C49        -5.3344   -3.5238   -0.2108 C.3       1 <0>         0.1320
     50 O1         -6.0194   -2.5249   -5.0069 O.co2     1 <0>        -0.8173
     51 O2         -4.0396   -1.4702   -5.4578 O.co2     1 <0>        -0.8352
     52 O3         -5.4155   -1.5800   -2.1065 O.2       1 <0>        -0.5762
     53 O4          1.6451   -3.7123    2.6635 O.3       1 <0>        -0.4342
     54 O5          1.8044    3.5426   -5.4977 O.3       1 <0>        -0.4554
     55 O6          0.2134    4.6066   -6.9683 O.3       1 <0>        -0.3648
     56 O7         -0.4689   -8.0322    4.6441 O.3       1 <0>        -0.4190
     57 O8         -3.2229   -3.8440    0.8675 O.3       1 <0>        -0.4060
     58 O9          1.0677   -6.4979    2.8418 O.3       1 <0>        -0.5701
     59 O10        -3.9725   -9.3464    6.3424 O.3       1 <0>        -0.5700
     60 O11        -1.4740  -10.4800    7.1912 O.3       1 <0>        -0.5789
     61 O12        -4.3062   -1.4819    2.6809 O.3       1 <0>        -0.6008
     62 O13        -3.6607   -6.5372    5.6509 O.3       1 <0>        -0.5685
     63 O14        -5.2925   -4.9458    2.7715 O.3       1 <0>        -0.5959
     64 O15        -1.8988    2.5559   -7.5669 O.3       1 <0>        -0.5900
     65 O16         1.9907   -9.1627    5.0736 O.3       1 <0>        -0.6026
     66 O17        -4.7279   -3.6915   -1.4803 O.3       1 <0>        -0.4504
     67 O18         0.2075   -2.3367    1.4423 O.3       1 <0>        -0.3813
     68 O19        -1.5117   -6.1181    3.8251 O.3       1 <0>        -0.3755
     69 O20        -2.0109   -3.4605    2.8425 O.3       1 <0>        -0.4259
     70 H1          2.6289    3.7631   -8.0682 H         1 <0>         0.1341
     71 H2          1.6825    0.0401   -5.3493 H         1 <0>         0.0243
     72 H3          0.3166   -0.7372   -6.1199 H         1 <0>         0.0453
     73 H4         -0.8544   -0.9968   -4.0326 H         1 <0>         0.0800
     74 H5          0.7818   -1.5925   -3.8427 H         1 <0>         0.0365
     75 H6         -0.0285    2.6725    0.3610 H         1 <0>         0.0265
     76 H7         -1.3629    1.7259   -0.2388 H         1 <0>         0.0562
     77 H8          2.5714   -2.6124    0.2206 H         1 <0>         0.0541
     78 H9          2.9104   -0.9208    0.0665 H         1 <0>         0.0306
     79 H10        -0.6619    3.4924   -1.8285 H         1 <0>         0.0398
     80 H11         0.9832    2.9024   -1.7564 H         1 <0>         0.0299
     81 H12         2.0478   -1.4597   -2.0352 H         1 <0>         0.0305
     82 H13         0.8292   -2.5449   -1.3814 H         1 <0>         0.0574
     83 H14        -0.8380    3.4422   -9.6471 H         1 <0>         0.0493
     84 H15         0.7285    2.6616   -9.6082 H         1 <0>         0.0487
     85 H16        -1.4829    3.4823   -5.1403 H         1 <0>         0.0956
     86 H17        -0.2636    4.4139   -4.2412 H         1 <0>         0.0597
     87 H18         1.8358   -3.8326    4.7207 H         1 <0>         0.0194
     88 H19         2.8844   -4.8968    3.7634 H         1 <0>         0.0778
     89 H20         1.9533    3.3453   -3.4775 H         1 <0>         0.0452
     90 H21         2.3956    1.8918   -4.3873 H         1 <0>         0.0421
     91 H22         0.1245    5.2793   -8.8791 H         1 <0>         0.0686
     92 H23        -1.1648    1.0986   -5.5825 H         1 <0>         0.0988
     93 H24         1.4789    0.5253   -2.8087 H         1 <0>         0.0275
     94 H25         1.5877    0.9749   -0.4090 H         1 <0>         0.0327
     95 H26         1.3392    1.7571   -7.0672 H         1 <0>         0.0649
     96 H27         1.8567   -1.4025    2.2101 H         1 <0>         0.0412
     97 H28         1.0116   -6.2003    4.8588 H         1 <0>         0.0483
     98 H29        -2.6029   -8.1881    7.2976 H         1 <0>         0.0706
     99 H30        -0.7768   -4.5067    4.8282 H         1 <0>         0.0429
    100 H31        -1.9059  -10.2956    5.1988 H         1 <0>         0.0953
    101 H32        -5.9652   -2.5693    2.1536 H         1 <0>         0.0742
    102 H33        -3.2180   -7.9992    4.3016 H         1 <0>         0.1122
    103 H34        -4.2542   -3.6612    4.0005 H         1 <0>         0.0774
    104 H35        -0.7998   -4.7044    1.7746 H         1 <0>         0.1162
    105 H36         0.0505   -8.3764    6.6175 H         1 <0>         0.0476
    106 H37        -3.9150   -1.9930    0.2993 H         1 <0>         0.0998
    107 H38        -1.0464   -6.3972    5.7895 H         1 <0>         0.0364
    108 H39        -2.8166   -5.2761    2.3031 H         1 <0>         0.0868
    109 H40         0.2842   -2.3745    3.4824 H         1 <0>         0.0407
    110 H41         4.5102    4.8968  -10.2259 H         1 <0>         0.0337
    111 H42         4.5894    6.4929   -9.4476 H         1 <0>         0.0336
    112 H43         4.6784    5.0222   -8.4704 H         1 <0>         0.0448
    113 H44         1.9302    7.4915   -9.2733 H         1 <0>         0.0461
    114 H45         2.6217    6.9415  -10.8142 H         1 <0>         0.0299
    115 H46         1.0272    6.3801  -10.3056 H         1 <0>         0.0386
    116 H47        -1.9002   -0.2826   -1.2472 H         1 <0>         0.0421
    117 H48        -1.2046   -1.5399   -0.2068 H         1 <0>         0.0621
    118 H49        -1.2908   -1.7880   -1.9614 H         1 <0>         0.0455
    119 H50        -2.1210    0.8499   -3.8895 H         1 <0>         0.0760
    120 H51        -2.3257    2.4734   -3.2042 H         1 <0>         0.0316
    121 H52        -2.2489    1.0615   -2.1326 H         1 <0>         0.0424
    122 H53         1.5994    0.6703    3.0856 H         1 <0>         0.0231
    123 H54         1.1617    2.0355    2.0406 H         1 <0>         0.0365
    124 H55         2.5338    0.9952    1.6128 H         1 <0>         0.0291
    125 H56        -0.6515   -0.2290    2.9826 H         1 <0>         0.0224
    126 H57        -1.4778   -0.4434    1.4274 H         1 <0>         0.0682
    127 H58        -1.1033    1.1881    2.0155 H         1 <0>         0.0284
    128 H59        -1.1329    0.0561   -7.8447 H         1 <0>         0.0796
    129 H60         0.2309    0.4012   -8.9256 H         1 <0>         0.0400
    130 H61        -1.4215    0.8130   -9.4232 H         1 <0>         0.0360
    131 H62        -4.2030   -4.0528   -3.8038 H         1 <0>         0.0636
    132 H63        -3.0969   -2.6740   -3.5715 H         1 <0>         0.0670
    133 H64         0.5271  -10.4605    4.4518 H         1 <0>         0.0467
    134 H65         1.0101  -10.6004    6.1622 H         1 <0>         0.0467
    135 H66        -6.1969   -2.8630   -0.3104 H         1 <0>         0.0560
    136 H67        -5.6603   -4.4962    0.1617 H         1 <0>         0.0678
    137 H68         1.9759   -6.8244    2.9256 H         1 <0>         0.4140
    138 H69        -4.0742   -9.7642    5.4743 H         1 <0>         0.4116
    139 H70        -1.2522   -9.8908    7.9288 H         1 <0>         0.4042
    140 H71        -4.6504   -0.7505    2.1455 H         1 <0>         0.4169
    141 H72        -3.2845   -6.1863    6.4723 H         1 <0>         0.4037
    142 H73        -4.9456   -5.6906    3.2883 H         1 <0>         0.4168
    143 H74        -2.4234    2.5617   -8.3802 H         1 <0>         0.4115
    144 H75         2.6818   -9.8006    4.8264 H         1 <0>         0.4069
@<TRIPOS>BOND
     1    1    2 2
     2    1   15 1
     3    2   40 1
     4    2   41 1
     5    3   47 1
     6    3   50 1
     7    3   51 2
     8    4   47 1
     9    4   52 2
    10    4   66 1
    11    5    6 1
    12    5   16 1
    13    6   17 1
    14    7    9 1
    15    7   18 1
    16    8   10 1
    17    8   20 1
    18    9   36 1
    19   10   35 1
    20   11   15 1
    21   11   38 1
    22   12   34 1
    23   12   39 1
    24   13   21 1
    25   13   53 1
    26   14   34 1
    27   14   54 1
    28   15   55 1
    29   16   19 1
    30   16   34 1
    31   17   35 1
    32   17   36 1
    33   18   35 1
    34   18   37 1
    35   19   38 1
    36   19   39 1
    37   20   37 1
    38   20   67 1
    39   21   23 1
    40   21   58 1
    41   22   24 1
    42   22   26 1
    43   22   59 1
    44   23   28 1
    45   23   68 1
    46   24   29 1
    47   24   60 1
    48   25   27 1
    49   25   30 1
    50   25   61 1
    51   26   31 1
    52   26   62 1
    53   27   32 1
    54   27   63 1
    55   28   33 1
    56   28   69 1
    57   29   48 1
    58   29   56 1
    59   30   49 1
    60   30   57 1
    61   31   56 1
    62   31   68 1
    63   32   57 1
    64   32   69 1
    65   33   53 1
    66   33   67 1
    67   34   36 1
    68   35   42 1
    69   36   43 1
    70   37   44 1
    71   37   45 1
    72   38   46 1
    73   38   64 1
    74   39   54 1
    75   39   55 1
    76   48   65 1
    77   49   66 1
    78    1   70 1
    79    5   71 1
    80    5   72 1
    81    6   73 1
    82    6   74 1
    83    7   75 1
    84    7   76 1
    85    8   77 1
    86    8   78 1
    87    9   79 1
    88    9   80 1
    89   10   81 1
    90   10   82 1
    91   11   83 1
    92   11   84 1
    93   12   85 1
    94   12   86 1
    95   13   87 1
    96   13   88 1
    97   14   89 1
    98   14   90 1
    99   15   91 1
   100   16   92 1
   101   17   93 1
   102   18   94 1
   103   19   95 1
   104   20   96 1
   105   21   97 1
   106   22   98 1
   107   23   99 1
   108   24  100 1
   109   25  101 1
   110   26  102 1
   111   27  103 1
   112   28  104 1
   113   29  105 1
   114   30  106 1
   115   31  107 1
   116   32  108 1
   117   33  109 1
   118   40  110 1
   119   40  111 1
   120   40  112 1
   121   41  113 1
   122   41  114 1
   123   41  115 1
   124   42  116 1
   125   42  117 1
   126   42  118 1
   127   43  119 1
   128   43  120 1
   129   43  121 1
   130   44  122 1
   131   44  123 1
   132   44  124 1
   133   45  125 1
   134   45  126 1
   135   45  127 1
   136   46  128 1
   137   46  129 1
   138   46  130 1
   139   47  131 1
   140   47  132 1
   141   48  133 1
   142   48  134 1
   143   49  135 1
   144   49  136 1
   145   58  137 1
   146   59  138 1
   147   60  139 1
   148   61  140 1
   149   62  141 1
   150   63  142 1
   151   64  143 1
   152   65  144 1
@<TRIPOS>MOLECULE
CHEMBL501671_1
   81    85     0     0     0
SMALL
AM1BCC_CHARGES

@<TRIPOS>ATOM
      1 C1         -5.3883    5.7884    1.9918 C.ar      1 <0>        -0.1457
      2 C2         -5.7041    6.3928    0.7837 C.ar      1 <0>        -0.1066
      3 C3         -1.1036    9.6463   -2.8153 C.ar      1 <0>        -0.1035
      4 C4         -4.5033    4.7137    2.0147 C.ar      1 <0>        -0.0748
      5 C5         -5.1286    5.9242   -0.3983 C.ar      1 <0>        -0.1155
      6 C6         -1.6849    8.5853   -2.1212 C.ar      1 <0>        -0.1463
      7 C7         -0.6105   -1.1656    2.0233 C.ar      1 <0>        -0.1790
      8 C8          0.0073   -2.4193    2.0353 C.ar      1 <0>        -0.0493
      9 C9         -0.2172    9.3927   -3.8621 C.ar      1 <0>        -0.1526
     10 C10        -0.4933    7.0170   -3.5204 C.ar      1 <0>        -0.1999
     11 C11         0.8432   -2.0376   -0.1954 C.ar      1 <0>         0.0198
     12 C12        -3.9211    4.2393    0.8256 C.ar      1 <0>        -0.1618
     13 C13        -4.2160    4.8458   -0.4051 C.ar      1 <0>        -0.0259
     14 C14        -1.3797    7.2706   -2.4737 C.ar      1 <0>        -0.0506
     15 C15        -0.5167   -0.3301    0.9024 C.ar      1 <0>         0.2574
     16 C16         0.7291   -2.8557    0.9252 C.ar      1 <0>         0.0756
     17 C17         0.0880    8.0781   -4.2146 C.ar      1 <0>         0.1249
     18 C18         0.2227   -0.7880   -0.1895 C.ar      1 <0>        -0.4121
     19 C19        -3.0113    3.0792    0.9280 C.2       1 <0>         0.6267
     20 C20        -2.3007    2.6738   -0.3052 C.2       1 <0>        -0.4322
     21 C21        -1.4575    1.6332   -0.2429 C.2       1 <0>         0.5363
     22 C22        -2.4876    3.3638   -1.6069 C.2       1 <0>         0.5809
     23 C23        -3.6343    4.3662   -1.7298 C.3       1 <0>         0.1424
     24 C24        -7.5763    2.5890   -2.8485 C.3       1 <0>        -0.0869
     25 C25        -6.8282    0.4353   -1.8267 C.3       1 <0>        -0.0881
     26 C26        -5.8352    1.2111   -3.9939 C.3       1 <0>        -0.0873
     27 C27         1.2200    6.4635   -5.5440 C.3       1 <0>         0.1123
     28 C28         3.3202   -3.8969    2.7632 C.3       1 <0>        -0.3714
     29 C29        -2.0051    6.1287   -1.7260 C.3       1 <0>         0.1845
     30 C30        -4.7348    3.6898   -2.5685 C.3       1 <0>        -0.0685
     31 C31        -5.2855    2.4651   -1.8428 C.3       1 <0>        -0.0759
     32 C32        -6.3630    1.6655   -2.6231 C.3       1 <0>        -0.0520
     33 N1         -1.1893    0.8967    0.8827 N.pl3     1 <0>        -0.6532
     34 N2         -0.8954    1.3104   -1.5134 N.pl3     1 <0>        -0.7609
     35 N3          1.3599   -4.1361    0.9431 N.pl3     1 <0>        -0.7959
     36 N4         -3.0587    5.4911   -2.4915 N.3       1 <0>        -0.7790
     37 O1         -2.8600    2.4964    1.9956 O.2       1 <0>        -0.6203
     38 O2         -1.7636    3.0951   -2.5681 O.2       1 <0>        -0.6094
     39 O3          0.3353   -0.5369   -2.7611 O.2       1 <0>        -0.6315
     40 O4          1.6485    1.0445   -1.2902 O.2       1 <0>        -0.6177
     41 O5          3.5040   -5.5592    0.7707 O.2       1 <0>        -0.6465
     42 O6          3.6715   -3.0906    0.2986 O.2       1 <0>        -0.6445
     43 O7          0.9526    7.8307   -5.2364 O.3       1 <0>        -0.3289
     44 S1          0.4480    0.2800   -1.5679 S.o2      1 <0>         1.5321
     45 S2          3.0792   -4.1955    1.0262 S.o2      1 <0>         1.4705
     46 H1         -5.8328    6.1479    2.9150 H         1 <0>         0.1385
     47 H2         -6.4000    7.2261    0.7559 H         1 <0>         0.1353
     48 H3         -1.3416   10.6697   -2.5411 H         1 <0>         0.1325
     49 H4         -4.2786    4.2555    2.9747 H         1 <0>         0.1574
     50 H5         -5.4131    6.4145   -1.3267 H         1 <0>         0.1590
     51 H6         -2.3740    8.7927   -1.3068 H         1 <0>         0.1361
     52 H7         -1.1790   -0.8507    2.8957 H         1 <0>         0.1580
     53 H8         -0.0853   -3.0491    2.9168 H         1 <0>         0.1479
     54 H9          0.2323   10.2235   -4.3988 H         1 <0>         0.1477
     55 H10        -0.2533    5.9931   -3.7972 H         1 <0>         0.1456
     56 H11         1.4248   -2.3661   -1.0527 H         1 <0>         0.1811
     57 H12        -7.2951    3.4845   -3.4144 H         1 <0>         0.0357
     58 H13        -8.0044    2.9196   -1.8954 H         1 <0>         0.0359
     59 H14        -8.3654    2.0759   -3.4096 H         1 <0>         0.0356
     60 H15        -6.0045   -0.2602   -1.6356 H         1 <0>         0.0320
     61 H16        -7.2543    0.7277   -0.8606 H         1 <0>         0.0353
     62 H17        -7.5981   -0.1202   -2.3747 H         1 <0>         0.0363
     63 H18        -4.9687    0.5498   -3.8841 H         1 <0>         0.0340
     64 H19        -6.5991    0.6746   -4.5658 H         1 <0>         0.0360
     65 H20        -5.5231    2.0696   -4.5999 H         1 <0>         0.0371
     66 H21         1.9244    6.4077   -6.3775 H         1 <0>         0.0657
     67 H22         0.2869    5.9590   -5.8072 H         1 <0>         0.0339
     68 H23         1.6580    5.9810   -4.6670 H         1 <0>         0.0378
     69 H24         4.3918   -3.9065    2.9689 H         1 <0>         0.1261
     70 H25         2.8926   -2.9234    3.0078 H         1 <0>         0.1171
     71 H26         2.8165   -4.6873    3.3216 H         1 <0>         0.1108
     72 H27        -1.2549    5.3675   -1.4858 H         1 <0>         0.0332
     73 H28        -2.4380    6.4688   -0.7794 H         1 <0>         0.0644
     74 H29        -5.5153    4.4286   -2.7451 H         1 <0>         0.0665
     75 H30        -4.2974    3.4171   -3.5279 H         1 <0>         0.0601
     76 H31        -5.7078    2.7849   -0.8804 H         1 <0>         0.0518
     77 H32        -4.4510    1.7934   -1.6000 H         1 <0>         0.0387
     78 H33        -1.6465    1.1890    1.7391 H         1 <0>         0.5075
     79 H34        -1.4960    1.4396   -2.3374 H         1 <0>         0.5011
     80 H35         0.8770   -4.8391    1.5270 H         1 <0>         0.4635
     81 H36        -2.6855    5.1269   -3.3608 H         1 <0>         0.3750
@<TRIPOS>BOND
     1    1    2 ar
     2    1    4 ar
     3    2    5 ar
     4    3    6 ar
     5    3    9 ar
     6    4   12 ar
     7    5   13 ar
     8    6   14 ar
     9    7    8 ar
    10    7   15 ar
    11    8   16 ar
    12    9   17 ar
    13   10   14 ar
    14   10   17 ar
    15   11   16 ar
    16   11   18 ar
    17   12   13 ar
    18   12   19 1
    19   13   23 1
    20   14   29 1
    21   15   18 ar
    22   15   33 1
    23   16   35 1
    24   17   43 1
    25   18   44 1
    26   19   20 1
    27   19   37 2
    28   20   21 2
    29   20   22 1
    30   21   33 1
    31   21   34 1
    32   22   23 1
    33   22   38 2
    34   23   30 1
    35   23   36 1
    36   24   32 1
    37   25   32 1
    38   26   32 1
    39   27   43 1
    40   28   45 1
    41   29   36 1
    42   30   31 1
    43   31   32 1
    44   34   44 1
    45   35   45 1
    46   39   44 2
    47   40   44 2
    48   41   45 2
    49   42   45 2
    50    1   46 1
    51    2   47 1
    52    3   48 1
    53    4   49 1
    54    5   50 1
    55    6   51 1
    56    7   52 1
    57    8   53 1
    58    9   54 1
    59   10   55 1
    60   11   56 1
    61   24   57 1
    62   24   58 1
    63   24   59 1
    64   25   60 1
    65   25   61 1
    66   25   62 1
    67   26   63 1
    68   26   64 1
    69   26   65 1
    70   27   66 1
    71   27   67 1
    72   27   68 1
    73   28   69 1
    74   28   70 1
    75   28   71 1
    76   29   72 1
    77   29   73 1
    78   30   74 1
    79   30   75 1
    80   31   76 1
    81   31   77 1
    82   33   78 1
    83   34   79 1
    84   35   80 1
    85   36   81 1
@<TRIPOS>MOLECULE
CHEMBL403325_1
   66    68     0     0     0
SMALL
AM1BCC_CHARGES

@<TRIPOS>ATOM
      1 C1          3.8144    3.1005   -4.4902 C.ar      1 <0>        -0.1349
      2 C2          2.6460    2.5842   -3.9299 C.ar      1 <0>        -0.1425
      3 C3          4.4069    4.2382   -3.9423 C.ar      1 <0>        -0.1226
      4 C4          4.5227   -1.8876    1.2448 C.ar      1 <0>        -0.0896
      5 C5          3.4012   -1.3419    1.8691 C.ar      1 <0>        -0.1676
      6 C6          2.0701    3.2056   -2.8219 C.ar      1 <0>        -0.1441
      7 C7          3.8310    4.8597   -2.8343 C.ar      1 <0>        -0.1190
      8 C8          4.7126   -1.7121   -0.1259 C.ar      1 <0>        -0.1460
      9 C9          2.6591   -0.4451   -0.2480 C.ar      1 <0>        -0.2116
     10 C10         2.4693   -0.6206    1.1227 C.ar      1 <0>        -0.0472
     11 C11         2.6626    4.3434   -2.2741 C.ar      1 <0>        -0.0656
     12 C12         3.7807   -0.9908   -0.8723 C.ar      1 <0>         0.1395
     13 C13        -0.5752    5.3250    1.6075 C.2       1 <0>         0.6148
     14 C14        -0.3400    8.0974   -0.5512 C.2       1 <0>         0.9180
     15 C15         0.3973    0.7136    0.7339 C.3       1 <0>        -0.1027
     16 C16        -0.7794    1.4976    1.3081 C.3       1 <0>         0.1101
     17 C17         0.4454    1.7500    3.4755 C.3       1 <0>         0.1157
     18 C18         1.6635    0.9914    2.9200 C.3       1 <0>        -0.0752
     19 C19         1.2612   -0.0333    1.7952 C.3       1 <0>         0.0013
     20 C20         2.7494    1.9924    2.4803 C.3       1 <0>        -0.1150
     21 C21         0.4756   -1.2157    2.3895 C.3       1 <0>        -0.0968
     22 C22         2.0404    5.0159   -1.0764 C.3       1 <0>        -0.0327
     23 C23        -1.7472    4.4043    1.9098 C.3       1 <0>        -0.1957
     24 C24         1.0171    6.1028   -1.4351 C.3       1 <0>        -0.0726
     25 C25        -1.4185    3.2989    2.9006 C.3       1 <0>         0.1328
     26 C26         0.3275    6.7509   -0.2272 C.3       1 <0>        -0.0853
     27 N1         -0.6503    5.8385    0.3208 N.am      1 <0>        -0.4710
     28 N2         -0.2956    2.4511    2.3660 N.4       1 <0>        -0.6870
     29 O1         -1.2020    8.0485   -1.4751 O.co2     1 <0>        -0.8275
     30 O2          0.3101    5.5760    2.4206 O.2       1 <0>        -0.6940
     31 O3          0.0544    9.0878    0.1259 O.co2     1 <0>        -0.7730
     32 O4          3.9663   -0.8190   -2.2098 O.3       1 <0>        -0.4883
     33 H1          4.2634    2.6157   -5.3521 H         1 <0>         0.1302
     34 H2          2.1851    1.6976   -4.3557 H         1 <0>         0.1198
     35 H3          5.3172    4.6399   -4.3776 H         1 <0>         0.1340
     36 H4          5.2484   -2.4487    1.8260 H         1 <0>         0.1424
     37 H5          3.2615   -1.4843    2.9375 H         1 <0>         0.1296
     38 H6          1.1595    2.7964   -2.3921 H         1 <0>         0.1110
     39 H7          4.2996    5.7458   -2.4142 H         1 <0>         0.1423
     40 H8          5.5882   -2.1397   -0.6063 H         1 <0>         0.1609
     41 H9          1.9341    0.1165   -0.8325 H         1 <0>         0.1344
     42 H10         0.0118   -0.0063   -0.0007 H         1 <0>         0.0888
     43 H11         1.0292    1.4034    0.1578 H         1 <0>         0.0808
     44 H12        -1.2577    2.0944    0.5240 H         1 <0>         0.1013
     45 H13        -1.5279    0.8413    1.7643 H         1 <0>         0.0876
     46 H14        -0.2631    1.0794    3.9731 H         1 <0>         0.0826
     47 H15         0.7567    2.5167    4.1943 H         1 <0>         0.1087
     48 H16         2.0987    0.4242    3.7552 H         1 <0>         0.0857
     49 H17         2.3737    2.5838    1.6529 H         1 <0>         0.0474
     50 H18         3.6322    1.4452    2.1693 H         1 <0>         0.0751
     51 H19         2.9938    2.6408    3.3142 H         1 <0>         0.0574
     52 H20        -0.4115   -0.8406    2.8889 H         1 <0>         0.0220
     53 H21         1.1032   -1.7392    3.1030 H         1 <0>         0.0552
     54 H22         0.1878   -1.8912    1.5908 H         1 <0>         0.0602
     55 H23         1.5837    4.2669   -0.4184 H         1 <0>         0.0063
     56 H24         2.8462    5.4694   -0.4842 H         1 <0>         0.0521
     57 H25        -2.1170    3.9792    0.9690 H         1 <0>         0.0702
     58 H26        -2.5474    5.0267    2.3286 H         1 <0>         0.1160
     59 H27         1.5276    6.8738   -2.0275 H         1 <0>         0.0794
     60 H28         0.2520    5.6791   -2.0995 H         1 <0>         0.0549
     61 H29        -1.0930    3.6844    3.8713 H         1 <0>         0.1194
     62 H30        -2.2718    2.6291    3.0406 H         1 <0>         0.0817
     63 H31         1.0613    6.9036    0.5728 H         1 <0>         0.0836
     64 H32        -1.4237    5.5647   -0.2781 H         1 <0>         0.3403
     65 H33         0.3597    3.1024    1.9141 H         1 <0>         0.4863
     66 H34         3.2383   -0.2994   -2.5863 H         1 <0>         0.4270
@<TRIPOS>BOND
     1    1    2 ar
     2    1    3 ar
     3    2    6 ar
     4    3    7 ar
     5    4    5 ar
     6    4    8 ar
     7    5   10 ar
     8    6   11 ar
     9    7   11 ar
    10    8   12 ar
    11    9   10 ar
    12    9   12 ar
    13   10   19 1
    14   11   22 1
    15   12   32 1
    16   13   23 1
    17   13   27 am
    18   13   30 2
    19   14   26 1
    20   14   29 1
    21   14   31 2
    22   15   16 1
    23   15   19 1
    24   16   28 1
    25   17   18 1
    26   17   28 1
    27   18   19 1
    28   18   20 1
    29   19   21 1
    30   22   24 1
    31   23   25 1
    32   24   26 1
    33   25   28 1
    34   26   27 1
    35    1   33 1
    36    2   34 1
    37    3   35 1
    38    4   36 1
    39    5   37 1
    40    6   38 1
    41    7   39 1
    42    8   40 1
    43    9   41 1
    44   15   42 1
    45   15   43 1
    46   16   44 1
    47   16   45 1
    48   17   46 1
    49   17   47 1
    50   18   48 1
    51   20   49 1
    52   20   50 1
    53   20   51 1
    54   21   52 1
    55   21   53 1
    56   21   54 1
    57   22   55 1
    58   22   56 1
    59   23   57 1
    60   23   58 1
    61   24   59 1
    62   24   60 1
    63   25   61 1
    64   25   62 1
    65   26   63 1
    66   27   64 1
    67   28   65 1
    68   32   66 1
